<?xml version="1.0" encoding="UTF-8"?>

<!-- generated on 2025-03-02 18:52:53 by Eclipse SUMO netconvert Version 1.22.0
<netconvertConfiguration xmlns:xsi="http://www.w3.org/2001/XMLSchema-instance" xsi:noNamespaceSchemaLocation="http://sumo.dlr.de/xsd/netconvertConfiguration.xsd">

    <input>
        <osm-files value="map.osm"/>
    </input>

    <output>
        <output-file value="map.net.xml"/>
    </output>

    <projection>
        <proj.utm value="true"/>
    </projection>

    <processing>
        <geometry.remove value="true"/>
        <roundabouts.guess value="true"/>
    </processing>

    <tls_building>
        <tls.discard-simple value="true"/>
        <tls.join value="true"/>
        <tls.guess-signals value="true"/>
    </tls_building>

    <ramp_guessing>
        <ramps.guess value="true"/>
    </ramp_guessing>

    <junctions>
        <junctions.join value="true"/>
    </junctions>

</netconvertConfiguration>
-->

<net version="1.20" junctionCornerDetail="5" limitTurnSpeed="5.50" xmlns:xsi="http://www.w3.org/2001/XMLSchema-instance" xsi:noNamespaceSchemaLocation="http://sumo.dlr.de/xsd/net_file.xsd">

    <location netOffset="-649483.83,-3728205.41" convBoundary="0.00,0.00,2368.41,1341.34" origBoundary="-7.387113,33.683059,-7.361665,33.695363" projParameter="+proj=utm +zone=29 +ellps=WGS84 +datum=WGS84 +units=m +no_defs"/>

    <type id="highway.footway" priority="1" numLanes="1" speed="2.78" allow="pedestrian" oneway="1" width="2.00"/>
    <type id="highway.pedestrian" priority="1" numLanes="1" speed="2.78" allow="pedestrian" oneway="1" width="2.00"/>
    <type id="highway.residential" priority="3" numLanes="1" speed="13.89" disallow="tram rail_urban rail rail_electric rail_fast ship container cable_car subway aircraft wheelchair scooter drone" oneway="0"/>
    <type id="highway.secondary" priority="11" numLanes="1" speed="27.78" disallow="tram rail_urban rail rail_electric rail_fast ship container cable_car subway aircraft wheelchair scooter drone" oneway="0"/>
    <type id="highway.service" priority="1" numLanes="1" speed="5.56" allow="pedestrian delivery bicycle" oneway="0"/>
    <type id="highway.tertiary" priority="10" numLanes="1" speed="22.22" disallow="tram rail_urban rail rail_electric rail_fast ship container cable_car subway aircraft wheelchair scooter drone" oneway="0"/>
    <type id="highway.tertiary_link" priority="5" numLanes="1" speed="22.22" disallow="tram rail_urban rail rail_electric rail_fast ship container cable_car subway aircraft wheelchair scooter drone" oneway="0"/>
    <type id="highway.track" priority="1" numLanes="1" speed="5.56" allow="pedestrian motorcycle moped bicycle" oneway="0"/>

    <edge id=":10170145955_0" function="internal">
        <lane id=":10170145955_0_0" index="0" disallow="tram rail_urban rail rail_electric rail_fast ship container cable_car subway aircraft wheelchair scooter drone" speed="6.27" length="9.04" shape="1398.09,917.36 1396.26,915.63 1394.37,914.98 1392.42,915.41 1390.40,916.92"/>
    </edge>
    <edge id=":10170145955_1" function="internal">
        <lane id=":10170145955_1_0" index="0" disallow="tram rail_urban rail rail_electric rail_fast ship container cable_car subway aircraft wheelchair scooter drone" speed="16.67" length="14.42" shape="1401.07,907.41 1397.93,909.16 1395.31,911.52 1392.90,914.20 1390.40,916.92"/>
    </edge>
    <edge id=":11747005597_0" function="internal">
        <lane id=":11747005597_0_0" index="0" disallow="tram rail_urban rail rail_electric rail_fast ship container cable_car subway aircraft wheelchair scooter drone" speed="4.19" length="1.26" shape="297.66,976.91 297.34,976.92 297.04,976.99 296.76,977.12 296.51,977.31"/>
    </edge>
    <edge id=":11747005597_1" function="internal">
        <lane id=":11747005597_1_0" index="0" disallow="tram rail_urban rail rail_electric rail_fast ship container cable_car subway aircraft wheelchair scooter drone" speed="6.63" length="3.77" shape="294.38,974.92 295.15,974.35 295.99,973.96 296.89,973.75 297.85,973.72"/>
    </edge>
    <edge id=":11747005599_0" function="internal">
        <lane id=":11747005599_0_0" index="0" disallow="tram rail_urban rail rail_electric rail_fast ship container cable_car subway aircraft wheelchair scooter drone" speed="13.89" length="0.10" shape="277.69,994.07 277.75,994.02"/>
    </edge>
    <edge id=":11747005599_1" function="internal">
        <lane id=":11747005599_1_0" index="0" disallow="tram rail_urban rail rail_electric rail_fast ship container cable_car subway aircraft wheelchair scooter drone" speed="13.89" length="0.10" shape="275.51,991.73 275.57,991.68"/>
    </edge>
    <edge id=":12169902484_0" function="internal">
        <lane id=":12169902484_0_0" index="0" disallow="tram rail_urban rail rail_electric rail_fast ship container cable_car subway aircraft wheelchair scooter drone" speed="3.65" length="4.67" shape="1253.77,749.48 1253.27,748.13 1253.43,747.24 1254.22,746.84 1255.67,746.91"/>
    </edge>
    <edge id=":12206245011_0" function="internal">
        <lane id=":12206245011_0_0" index="0" disallow="tram rail_urban rail rail_electric rail_fast ship container cable_car subway aircraft wheelchair scooter drone" speed="6.20" length="9.05" shape="567.27,455.73 565.36,454.06 563.45,453.51 561.54,454.07 559.64,455.75"/>
    </edge>
    <edge id=":12206245011_1" function="internal">
        <lane id=":12206245011_1_0" index="0" disallow="tram rail_urban rail rail_electric rail_fast ship container cable_car subway aircraft wheelchair scooter drone" speed="8.62" length="14.44" shape="567.27,455.73 565.00,452.33 564.10,449.02 564.58,445.79 566.44,442.64"/>
    </edge>
    <edge id=":12206245011_2" function="internal">
        <lane id=":12206245011_2_0" index="0" disallow="tram rail_urban rail rail_electric rail_fast ship container cable_car subway aircraft wheelchair scooter drone" speed="3.65" length="4.67" shape="567.27,455.73 567.09,454.30 567.44,453.48 568.31,453.26 569.70,453.64"/>
    </edge>
    <edge id=":12206245011_3" function="internal">
        <lane id=":12206245011_3_0" index="0" disallow="tram rail_urban rail rail_electric rail_fast ship container cable_car subway aircraft wheelchair scooter drone" speed="7.24" length="9.91" shape="568.92,444.67 567.69,446.78 567.42,448.98 568.08,451.27 569.70,453.64"/>
    </edge>
    <edge id=":12206245011_4" function="internal">
        <lane id=":12206245011_4_0" index="0" disallow="tram rail_urban rail rail_electric rail_fast ship container cable_car subway aircraft wheelchair scooter drone" speed="13.89" length="14.45" shape="568.92,444.67 559.64,455.75"/>
    </edge>
    <edge id=":12206245011_5" function="internal">
        <lane id=":12206245011_5_0" index="0" disallow="tram rail_urban rail rail_electric rail_fast ship container cable_car subway aircraft wheelchair scooter drone" speed="3.65" length="1.44" shape="568.92,444.67 567.54,445.09"/>
    </edge>
    <edge id=":12206245011_9" function="internal">
        <lane id=":12206245011_9_0" index="0" disallow="tram rail_urban rail rail_electric rail_fast ship container cable_car subway aircraft wheelchair scooter drone" speed="3.65" length="3.23" shape="567.54,445.09 566.66,444.89 566.30,444.07 566.44,442.64"/>
    </edge>
    <edge id=":12206245011_6" function="internal">
        <lane id=":12206245011_6_0" index="0" disallow="tram rail_urban rail rail_electric rail_fast ship container cable_car subway aircraft wheelchair scooter drone" speed="13.89" length="14.39" shape="557.20,453.67 566.44,442.64"/>
    </edge>
    <edge id=":12206245011_7" function="internal">
        <lane id=":12206245011_7_0" index="0" disallow="tram rail_urban rail rail_electric rail_fast ship container cable_car subway aircraft wheelchair scooter drone" speed="7.75" length="4.15" shape="557.20,453.67 560.32,450.93"/>
    </edge>
    <edge id=":12206245011_8" function="internal">
        <lane id=":12206245011_8_0" index="0" disallow="tram rail_urban rail rail_electric rail_fast ship container cable_car subway aircraft wheelchair scooter drone" speed="3.65" length="1.44" shape="557.20,453.67 558.59,453.28"/>
    </edge>
    <edge id=":12206245011_10" function="internal">
        <lane id=":12206245011_10_0" index="0" disallow="tram rail_urban rail rail_electric rail_fast ship container cable_car subway aircraft wheelchair scooter drone" speed="7.75" length="10.66" shape="560.32,450.93 563.44,450.01 566.57,450.92 569.70,453.64"/>
    </edge>
    <edge id=":12206245011_11" function="internal">
        <lane id=":12206245011_11_0" index="0" disallow="tram rail_urban rail rail_electric rail_fast ship container cable_car subway aircraft wheelchair scooter drone" speed="3.65" length="3.23" shape="558.59,453.28 559.46,453.49 559.81,454.32 559.64,455.75"/>
    </edge>
    <edge id=":12212785964_0" function="internal">
        <lane id=":12212785964_0_0" index="0" disallow="tram rail_urban rail rail_electric rail_fast ship container cable_car subway aircraft wheelchair scooter drone" speed="7.44" length="10.10" shape="1189.86,995.96 1191.95,998.04 1194.11,999.20 1196.36,999.43 1198.69,998.73"/>
    </edge>
    <edge id=":12212785964_1" function="internal">
        <lane id=":12212785964_1_0" index="0" disallow="tram rail_urban rail rail_electric rail_fast ship container cable_car subway aircraft wheelchair scooter drone" speed="3.65" length="4.67" shape="1189.86,995.96 1189.99,997.40 1189.62,998.21 1188.74,998.40 1187.37,997.96"/>
    </edge>
    <edge id=":12212785964_2" function="internal">
        <lane id=":12212785964_2_0" index="0" disallow="tram rail_urban rail rail_electric rail_fast ship container cable_car subway aircraft wheelchair scooter drone" speed="6.16" length="9.05" shape="1185.88,1005.40 1187.91,1003.88 1188.84,1002.13 1188.66,1000.15 1187.37,997.96"/>
    </edge>
    <edge id=":12212785964_3" function="internal">
        <lane id=":12212785964_3_0" index="0" disallow="tram rail_urban rail rail_electric rail_fast ship container cable_car subway aircraft wheelchair scooter drone" speed="16.67" length="14.38" shape="1185.88,1005.40 1198.69,998.73"/>
        <lane id=":12212785964_3_1" index="1" disallow="tram rail_urban rail rail_electric rail_fast ship container cable_car subway aircraft wheelchair scooter drone" speed="16.67" length="14.38" shape="1187.41,1008.21 1200.10,1001.60"/>
    </edge>
    <edge id=":12212785965_0" function="internal">
        <lane id=":12212785965_0_0" index="0" disallow="tram rail_urban rail rail_electric rail_fast ship container cable_car subway aircraft wheelchair scooter drone" speed="6.45" length="9.03" shape="1311.48,964.78 1310.07,962.74 1308.34,961.67 1306.31,961.55 1303.98,962.41"/>
    </edge>
    <edge id=":12212785965_1" function="internal">
        <lane id=":12212785965_1_0" index="0" disallow="tram rail_urban rail rail_electric rail_fast ship container cable_car subway aircraft wheelchair scooter drone" speed="3.65" length="4.67" shape="1311.48,964.78 1311.66,963.35 1312.20,962.63 1313.09,962.63 1314.34,963.35"/>
    </edge>
    <edge id=":12212785965_2" function="internal">
        <lane id=":12212785965_2_0" index="0" disallow="tram rail_urban rail rail_electric rail_fast ship container cable_car subway aircraft wheelchair scooter drone" speed="6.75" length="9.28" shape="1316.47,955.37 1314.57,956.92 1313.58,958.76 1313.50,960.91 1314.34,963.35"/>
    </edge>
    <edge id=":12212785965_3" function="internal">
        <lane id=":12212785965_3_0" index="0" disallow="tram rail_urban rail rail_electric rail_fast ship container cable_car subway aircraft wheelchair scooter drone" speed="22.22" length="14.27" shape="1316.47,955.37 1303.98,962.41"/>
        <lane id=":12212785965_3_1" index="1" disallow="tram rail_urban rail rail_electric rail_fast ship container cable_car subway aircraft wheelchair scooter drone" speed="22.22" length="14.27" shape="1314.84,952.62 1302.47,959.59"/>
    </edge>
    <edge id=":1696704073_0" function="internal">
        <lane id=":1696704073_0_0" index="0" disallow="tram rail_urban rail rail_electric rail_fast ship container cable_car subway aircraft wheelchair scooter drone" speed="10.19" length="9.23" shape="1339.03,897.50 1341.10,899.35 1342.59,900.73 1344.26,901.52 1346.84,901.57"/>
    </edge>
    <edge id=":1696704073_1" function="internal">
        <lane id=":1696704073_1_0" index="0" disallow="tram rail_urban rail rail_electric rail_fast ship container cable_car subway aircraft wheelchair scooter drone" speed="11.11" length="10.92" shape="1336.50,904.51 1339.17,902.96 1341.37,902.21 1343.71,901.87 1346.84,901.57"/>
    </edge>
    <edge id=":1696704315_0" function="internal">
        <lane id=":1696704315_0_0" index="0" allow="pedestrian delivery bicycle" speed="4.86" length="5.25" shape="930.61,436.76 929.49,437.72 929.02,438.77 929.22,439.89 930.07,441.10"/>
    </edge>
    <edge id=":1696704315_1" function="internal">
        <lane id=":1696704315_1_0" index="0" allow="pedestrian delivery bicycle" speed="3.65" length="4.67" shape="930.61,436.76 929.17,436.73 928.40,436.26 928.31,435.37 928.90,434.06"/>
    </edge>
    <edge id=":1696704315_2" function="internal">
        <lane id=":1696704315_2_0" index="0" allow="pedestrian delivery bicycle" speed="5.64" length="5.79" shape="923.64,434.01 924.68,434.83 925.90,435.12 927.30,434.86 928.90,434.06"/>
    </edge>
    <edge id=":1696704315_3" function="internal">
        <lane id=":1696704315_3_0" index="0" disallow="tram rail_urban rail rail_electric rail_fast ship container cable_car subway aircraft wheelchair scooter drone" speed="27.78" length="9.64" shape="923.64,434.01 930.07,441.10"/>
        <lane id=":1696704315_3_1" index="1" disallow="tram rail_urban rail rail_electric rail_fast ship container cable_car subway aircraft wheelchair scooter drone" speed="27.78" length="9.64" shape="921.22,436.10 927.74,443.30"/>
    </edge>
    <edge id=":1696704468_0" function="internal">
        <lane id=":1696704468_0_0" index="0" disallow="tram rail_urban rail rail_electric rail_fast ship container cable_car subway aircraft wheelchair scooter drone" speed="15.35" length="14.58" shape="1323.81,929.51 1323.14,926.39 1321.31,923.96 1318.71,921.36 1315.74,917.75"/>
        <lane id=":1696704468_0_1" index="1" disallow="tram rail_urban rail rail_electric rail_fast ship container cable_car subway aircraft wheelchair scooter drone" speed="15.51" length="14.91" shape="1323.81,929.51 1323.56,926.13 1322.66,923.11 1320.98,919.90 1318.38,915.94"/>
        <lane id=":1696704468_0_2" index="2" disallow="tram rail_urban rail rail_electric rail_fast ship container cable_car subway aircraft wheelchair scooter drone" speed="16.08" length="16.03" shape="1323.81,929.51 1324.01,925.91 1324.09,922.36 1323.33,918.55 1321.02,914.13"/>
        <lane id=":1696704468_0_3" index="3" disallow="tram rail_urban rail rail_electric rail_fast ship container cable_car subway aircraft wheelchair scooter drone" speed="16.93" length="17.82" shape="1323.81,929.51 1324.49,925.71 1325.57,921.70 1325.74,917.29 1323.66,912.32"/>
    </edge>
    <edge id=":1696704468_4" function="internal">
        <lane id=":1696704468_4_0" index="0" disallow="tram rail_urban rail rail_electric rail_fast ship container cable_car subway aircraft wheelchair scooter drone" speed="11.11" length="18.27" shape="1323.81,929.51 1324.14,925.25 1325.02,920.44 1326.38,915.76 1328.16,911.92"/>
    </edge>
    <edge id=":1696704652_0" function="internal">
        <lane id=":1696704652_0_0" index="0" disallow="tram rail_urban rail rail_electric rail_fast ship container cable_car subway aircraft wheelchair scooter drone" speed="11.97" length="10.16" shape="971.26,513.09 969.63,510.50 968.72,508.38 967.50,506.77 964.94,505.70"/>
    </edge>
    <edge id=":1696704652_1" function="internal">
        <lane id=":1696704652_1_0" index="0" disallow="tram rail_urban rail rail_electric rail_fast ship container cable_car subway aircraft wheelchair scooter drone" speed="11.11" length="14.04" shape="978.14,502.50 975.06,504.49 971.84,505.69 968.47,506.09 964.94,505.70"/>
    </edge>
    <edge id=":1696704659_0" function="internal">
        <lane id=":1696704659_0_0" index="0" disallow="tram rail_urban rail rail_electric rail_fast ship container cable_car subway aircraft wheelchair scooter drone" speed="11.11" length="8.69" shape="1325.78,938.00 1324.58,935.74 1324.00,934.06 1323.81,932.28 1323.81,929.71"/>
    </edge>
    <edge id=":1696704659_1" function="internal">
        <lane id=":1696704659_1_0" index="0" disallow="tram rail_urban rail rail_electric rail_fast ship container cable_car subway aircraft wheelchair scooter drone" speed="8.01" length="6.66" shape="1319.03,934.27 1320.10,933.43 1321.71,932.13 1323.17,930.76 1323.81,929.71"/>
    </edge>
    <edge id=":1696704914_0" function="internal">
        <lane id=":1696704914_0_0" index="0" disallow="tram rail_urban rail rail_electric rail_fast ship container cable_car subway aircraft wheelchair scooter drone" speed="13.89" length="7.03" shape="1378.70,928.66 1377.10,930.03 1375.88,930.90 1374.90,931.92 1374.05,933.75"/>
    </edge>
    <edge id=":1696704914_1" function="internal">
        <lane id=":1696704914_1_0" index="0" disallow="tram rail_urban rail rail_electric rail_fast ship container cable_car subway aircraft wheelchair scooter drone" speed="11.11" length="7.01" shape="1374.94,926.89 1375.07,928.96 1375.01,930.39 1374.70,931.78 1374.05,933.75"/>
    </edge>
    <edge id=":1696704945_0" function="internal">
        <lane id=":1696704945_0_0" index="0" disallow="tram rail_urban rail rail_electric rail_fast ship container cable_car subway aircraft wheelchair scooter drone" speed="13.89" length="9.25" shape="1356.33,902.41 1359.01,902.77 1360.88,902.64 1362.75,902.23 1365.46,901.74"/>
    </edge>
    <edge id=":1696704945_1" function="internal">
        <lane id=":1696704945_1_0" index="0" disallow="tram rail_urban rail rail_electric rail_fast ship container cable_car subway aircraft wheelchair scooter drone" speed="11.11" length="9.24" shape="1356.33,902.41 1358.98,903.04 1360.75,903.68 1362.46,904.47 1364.97,905.58"/>
    </edge>
    <edge id=":1696704963_0" function="internal">
        <lane id=":1696704963_0_0" index="0" disallow="tram rail_urban rail rail_electric rail_fast ship container cable_car subway aircraft wheelchair scooter drone" speed="9.81" length="8.53" shape="1373.99,933.94 1373.64,936.24 1374.25,937.81 1375.44,939.35 1376.80,941.54"/>
        <lane id=":1696704963_0_1" index="1" disallow="tram rail_urban rail rail_electric rail_fast ship container cable_car subway aircraft wheelchair scooter drone" speed="10.27" length="9.38" shape="1373.99,933.94 1373.10,936.57 1372.69,938.51 1372.90,940.41 1373.91,942.93"/>
    </edge>
    <edge id=":1696704963_2" function="internal">
        <lane id=":1696704963_2_0" index="0" disallow="tram rail_urban rail rail_electric rail_fast ship container cable_car subway aircraft wheelchair scooter drone" speed="11.11" length="9.87" shape="1373.99,933.94 1372.99,936.69 1372.14,938.50 1371.10,940.23 1369.56,942.72"/>
    </edge>
    <edge id=":1696705044_0" function="internal">
        <lane id=":1696705044_0_0" index="0" disallow="tram rail_urban rail rail_electric rail_fast ship container cable_car subway aircraft wheelchair scooter drone" speed="27.78" length="4.94" shape="954.73,467.25 955.65,468.24 956.30,468.90 957.01,469.49 958.13,470.23"/>
        <lane id=":1696705044_0_1" index="1" disallow="tram rail_urban rail rail_electric rail_fast ship container cable_car subway aircraft wheelchair scooter drone" speed="27.78" length="4.94" shape="952.41,469.44 953.49,470.61 954.25,471.38 955.10,472.06 956.42,472.94"/>
    </edge>
    <edge id=":1696705474_0" function="internal">
        <lane id=":1696705474_0_0" index="0" disallow="tram rail_urban rail rail_electric rail_fast ship container cable_car subway aircraft wheelchair scooter drone" speed="7.66" length="8.23" shape="1335.43,948.60 1333.90,947.90 1332.09,947.77 1329.99,948.21 1327.62,949.22"/>
        <lane id=":1696705474_0_1" index="1" disallow="tram rail_urban rail rail_electric rail_fast ship container cable_car subway aircraft wheelchair scooter drone" speed="8.40" length="10.01" shape="1335.43,948.60 1332.71,946.94 1330.26,946.01 1328.07,945.82 1326.15,946.38"/>
    </edge>
    <edge id=":1696705474_2" function="internal">
        <lane id=":1696705474_2_0" index="0" disallow="tram rail_urban rail rail_electric rail_fast ship container cable_car subway aircraft wheelchair scooter drone" speed="11.11" length="11.34" shape="1335.43,948.60 1332.80,946.78 1330.79,945.26 1329.09,943.48 1327.37,940.83"/>
    </edge>
    <edge id=":1696705541_0" function="internal">
        <lane id=":1696705541_0_0" index="0" disallow="tram rail_urban rail rail_electric rail_fast ship container cable_car subway aircraft wheelchair scooter drone" speed="11.23" length="9.61" shape="1354.46,957.64 1352.49,955.53 1351.12,953.93 1349.51,952.88 1346.86,952.40"/>
    </edge>
    <edge id=":1696705541_1" function="internal">
        <lane id=":1696705541_1_0" index="0" disallow="tram rail_urban rail rail_electric rail_fast ship container cable_car subway aircraft wheelchair scooter drone" speed="11.11" length="11.00" shape="1357.74,951.21 1354.68,951.90 1352.34,952.32 1349.98,952.48 1346.86,952.40"/>
    </edge>
    <edge id=":1757587557_0" function="internal">
        <lane id=":1757587557_0_0" index="0" disallow="tram rail_urban rail rail_electric rail_fast ship container cable_car subway aircraft wheelchair scooter drone" speed="13.89" length="14.51" shape="308.00,746.84 295.72,754.57"/>
    </edge>
    <edge id=":1757587557_1" function="internal">
        <lane id=":1757587557_1_0" index="0" disallow="tram rail_urban rail rail_electric rail_fast ship container cable_car subway aircraft wheelchair scooter drone" speed="8.85" length="3.73" shape="308.00,746.84 304.68,748.24 304.55,748.24"/>
    </edge>
    <edge id=":1757587557_2" function="internal">
        <lane id=":1757587557_2_0" index="0" disallow="tram rail_urban rail rail_electric rail_fast ship container cable_car subway aircraft wheelchair scooter drone" speed="3.65" length="1.44" shape="308.00,746.84 306.56,746.79"/>
    </edge>
    <edge id=":1757587557_9" function="internal">
        <lane id=":1757587557_9_0" index="0" disallow="tram rail_urban rail rail_electric rail_fast ship container cable_car subway aircraft wheelchair scooter drone" speed="8.85" length="10.86" shape="304.55,748.24 301.39,748.30 298.11,747.02 294.85,744.40"/>
    </edge>
    <edge id=":1757587557_10" function="internal">
        <lane id=":1757587557_10_0" index="0" disallow="tram rail_urban rail rail_electric rail_fast ship container cable_car subway aircraft wheelchair scooter drone" speed="3.65" length="3.23" shape="306.56,746.79 305.79,746.33 305.71,745.44 306.31,744.12"/>
    </edge>
    <edge id=":1757587557_3" function="internal">
        <lane id=":1757587557_3_0" index="0" disallow="tram rail_urban rail rail_electric rail_fast ship container cable_car subway aircraft wheelchair scooter drone" speed="7.50" length="10.24" shape="297.12,742.15 299.46,744.06 301.77,745.03 304.05,745.05 306.31,744.12"/>
    </edge>
    <edge id=":1757587557_4" function="internal">
        <lane id=":1757587557_4_0" index="0" disallow="tram rail_urban rail rail_electric rail_fast ship container cable_car subway aircraft wheelchair scooter drone" speed="7.67" length="15.07" shape="297.12,742.15 299.66,745.58 300.27,748.80 298.96,751.79 295.72,754.57"/>
    </edge>
    <edge id=":1757587557_5" function="internal">
        <lane id=":1757587557_5_0" index="0" disallow="tram rail_urban rail rail_electric rail_fast ship container cable_car subway aircraft wheelchair scooter drone" speed="3.65" length="4.67" shape="297.12,742.15 297.40,743.57 297.11,744.42 296.26,744.69 294.85,744.40"/>
    </edge>
    <edge id=":1757587557_6" function="internal">
        <lane id=":1757587557_6_0" index="0" disallow="tram rail_urban rail rail_electric rail_fast ship container cable_car subway aircraft wheelchair scooter drone" speed="6.09" length="9.06" shape="294.00,751.87 295.95,750.20 296.74,748.40 296.37,746.46 294.85,744.40"/>
    </edge>
    <edge id=":1757587557_7" function="internal">
        <lane id=":1757587557_7_0" index="0" disallow="tram rail_urban rail rail_electric rail_fast ship container cable_car subway aircraft wheelchair scooter drone" speed="13.89" length="14.54" shape="294.00,751.87 306.31,744.12"/>
    </edge>
    <edge id=":1757587557_8" function="internal">
        <lane id=":1757587557_8_0" index="0" disallow="tram rail_urban rail rail_electric rail_fast ship container cable_car subway aircraft wheelchair scooter drone" speed="3.65" length="1.44" shape="294.00,751.87 295.44,751.90"/>
    </edge>
    <edge id=":1757587557_11" function="internal">
        <lane id=":1757587557_11_0" index="0" disallow="tram rail_urban rail rail_electric rail_fast ship container cable_car subway aircraft wheelchair scooter drone" speed="3.65" length="3.23" shape="295.44,751.90 296.21,752.36 296.30,753.25 295.72,754.57"/>
    </edge>
    <edge id=":1757587591_0" function="internal">
        <lane id=":1757587591_0_0" index="0" disallow="tram rail_urban rail rail_electric rail_fast ship container cable_car subway aircraft wheelchair scooter drone" speed="7.79" length="11.20" shape="288.78,738.26 286.39,736.40 283.90,735.57 281.31,735.75 278.63,736.97"/>
    </edge>
    <edge id=":1757587591_1" function="internal">
        <lane id=":1757587591_1_0" index="0" disallow="tram rail_urban rail rail_electric rail_fast ship container cable_car subway aircraft wheelchair scooter drone" speed="13.89" length="15.80" shape="288.78,738.26 278.00,726.72"/>
    </edge>
    <edge id=":1757587591_2" function="internal">
        <lane id=":1757587591_2_0" index="0" disallow="tram rail_urban rail rail_electric rail_fast ship container cable_car subway aircraft wheelchair scooter drone" speed="7.67" length="15.06" shape="288.78,738.26 286.25,734.83 285.64,731.62 286.95,728.63 290.18,725.85"/>
    </edge>
    <edge id=":1757587591_3" function="internal">
        <lane id=":1757587591_3_0" index="0" disallow="tram rail_urban rail rail_electric rail_fast ship container cable_car subway aircraft wheelchair scooter drone" speed="3.65" length="4.67" shape="288.78,738.26 288.51,736.85 288.80,736.00 289.65,735.72 291.06,736.01"/>
    </edge>
    <edge id=":1757587591_4" function="internal">
        <lane id=":1757587591_4_0" index="0" disallow="tram rail_urban rail rail_electric rail_fast ship container cable_car subway aircraft wheelchair scooter drone" speed="6.10" length="9.06" shape="291.90,728.54 289.96,730.22 289.17,732.02 289.54,733.95 291.06,736.01"/>
    </edge>
    <edge id=":1757587591_5" function="internal">
        <lane id=":1757587591_5_0" index="0" disallow="tram rail_urban rail rail_electric rail_fast ship container cable_car subway aircraft wheelchair scooter drone" speed="13.89" length="15.72" shape="291.90,728.54 278.63,736.97"/>
    </edge>
    <edge id=":1757587591_6" function="internal">
        <lane id=":1757587591_6_0" index="0" disallow="tram rail_urban rail rail_electric rail_fast ship container cable_car subway aircraft wheelchair scooter drone" speed="8.85" length="4.42" shape="291.90,728.54 288.08,730.31 287.87,730.33"/>
    </edge>
    <edge id=":1757587591_7" function="internal">
        <lane id=":1757587591_7_0" index="0" disallow="tram rail_urban rail rail_electric rail_fast ship container cable_car subway aircraft wheelchair scooter drone" speed="3.65" length="1.44" shape="291.90,728.54 290.46,728.51"/>
    </edge>
    <edge id=":1757587591_16" function="internal">
        <lane id=":1757587591_16_0" index="0" disallow="tram rail_urban rail rail_electric rail_fast ship container cable_car subway aircraft wheelchair scooter drone" speed="8.85" length="11.08" shape="287.87,730.33 284.49,730.59 281.13,729.40 278.00,726.72"/>
    </edge>
    <edge id=":1757587591_17" function="internal">
        <lane id=":1757587591_17_0" index="0" disallow="tram rail_urban rail rail_electric rail_fast ship container cable_car subway aircraft wheelchair scooter drone" speed="3.65" length="3.23" shape="290.46,728.51 289.69,728.05 289.60,727.17 290.18,725.85"/>
    </edge>
    <edge id=":1757587591_8" function="internal">
        <lane id=":1757587591_8_0" index="0" disallow="tram rail_urban rail rail_electric rail_fast ship container cable_car subway aircraft wheelchair scooter drone" speed="7.50" length="10.89" shape="280.40,724.60 282.60,726.47 284.96,727.31 287.49,727.10 290.18,725.85"/>
    </edge>
    <edge id=":1757587591_9" function="internal">
        <lane id=":1757587591_9_0" index="0" disallow="tram rail_urban rail rail_electric rail_fast ship container cable_car subway aircraft wheelchair scooter drone" speed="13.89" length="15.61" shape="280.40,724.60 291.06,736.01"/>
    </edge>
    <edge id=":1757587591_10" function="internal">
        <lane id=":1757587591_10_0" index="0" disallow="tram rail_urban rail rail_electric rail_fast ship container cable_car subway aircraft wheelchair scooter drone" speed="7.75" length="14.83" shape="280.40,724.60 282.68,728.08 283.14,731.30 281.79,734.27 278.63,736.97"/>
    </edge>
    <edge id=":1757587591_11" function="internal">
        <lane id=":1757587591_11_0" index="0" disallow="tram rail_urban rail rail_electric rail_fast ship container cable_car subway aircraft wheelchair scooter drone" speed="3.65" length="4.67" shape="280.40,724.60 280.60,726.03 280.26,726.86 279.40,727.09 278.00,726.72"/>
    </edge>
    <edge id=":1757587591_12" function="internal">