<?xml version="1.0" encoding="utf-8"?>
<additional>
	<laneAreaDetector id=":10170145955_0_0" lanes=":10170145955_0_0" pos="0" endPos="9.04" friendlyPos="true" period="60" file="traffic_data.xml" timeThreshold="2.0" speedThreshold="5.0" jamThreshold="75.0" length="9.04" />
	<laneAreaDetector id=":10170145955_1_0" lanes=":10170145955_1_0" pos="0" endPos="14.42" friendlyPos="true" period="60" file="traffic_data.xml" timeThreshold="2.0" speedThreshold="5.0" jamThreshold="75.0" length="14.42" />
	<laneAreaDetector id=":11747005597_0_0" lanes=":11747005597_0_0" pos="0" endPos="1.26" friendlyPos="true" period="60" file="traffic_data.xml" timeThreshold="2.0" speedThreshold="5.0" jamThreshold="75.0" length="1.26" />
	<laneAreaDetector id=":11747005597_1_0" lanes=":11747005597_1_0" pos="0" endPos="3.77" friendlyPos="true" period="60" file="traffic_data.xml" timeThreshold="2.0" speedThreshold="5.0" jamThreshold="75.0" length="3.77" />
	<laneAreaDetector id=":11747005599_0_0" lanes=":11747005599_0_0" pos="0" endPos="0.1" friendlyPos="true" period="60" file="traffic_data.xml" timeThreshold="2.0" speedThreshold="5.0" jamThreshold="75.0" length="0.1" />
	<laneAreaDetector id=":11747005599_1_0" lanes=":11747005599_1_0" pos="0" endPos="0.1" friendlyPos="true" period="60" file="traffic_data.xml" timeThreshold="2.0" speedThreshold="5.0" jamThreshold="75.0" length="0.1" />
	<laneAreaDetector id=":12169902484_0_0" lanes=":12169902484_0_0" pos="0" endPos="4.67" friendlyPos="true" period="60" file="traffic_data.xml" timeThreshold="2.0" speedThreshold="5.0" jamThreshold="75.0" length="4.67" />
	<laneAreaDetector id=":12206245011_0_0" lanes=":12206245011_0_0" pos="0" endPos="9.05" friendlyPos="true" period="60" file="traffic_data.xml" timeThreshold="2.0" speedThreshold="5.0" jamThreshold="75.0" length="9.05" />
	<laneAreaDetector id=":12206245011_1_0" lanes=":12206245011_1_0" pos="0" endPos="14.44" friendlyPos="true" period="60" file="traffic_data.xml" timeThreshold="2.0" speedThreshold="5.0" jamThreshold="75.0" length="14.44" />
	<laneAreaDetector id=":12206245011_2_0" lanes=":12206245011_2_0" pos="0" endPos="4.67" friendlyPos="true" period="60" file="traffic_data.xml" timeThreshold="2.0" speedThreshold="5.0" jamThreshold="75.0" length="4.67" />
	<laneAreaDetector id=":12206245011_3_0" lanes=":12206245011_3_0" pos="0" endPos="9.91" friendlyPos="true" period="60" file="traffic_data.xml" timeThreshold="2.0" speedThreshold="5.0" jamThreshold="75.0" length="9.91" />
	<laneAreaDetector id=":12206245011_4_0" lanes=":12206245011_4_0" pos="0" endPos="14.45" friendlyPos="true" period="60" file="traffic_data.xml" timeThreshold="2.0" speedThreshold="5.0" jamThreshold="75.0" length="14.45" />
	<laneAreaDetector id=":12206245011_5_0" lanes=":12206245011_5_0" pos="0" endPos="1.44" friendlyPos="true" period="60" file="traffic_data.xml" timeThreshold="2.0" speedThreshold="5.0" jamThreshold="75.0" length="1.44" />
	<laneAreaDetector id=":12206245011_9_0" lanes=":12206245011_9_0" pos="0" endPos="3.23" friendlyPos="true" period="60" file="traffic_data.xml" timeThreshold="2.0" speedThreshold="5.0" jamThreshold="75.0" length="3.23" />
	<laneAreaDetector id=":12206245011_6_0" lanes=":12206245011_6_0" pos="0" endPos="14.39" friendlyPos="true" period="60" file="traffic_data.xml" timeThreshold="2.0" speedThreshold="5.0" jamThreshold="75.0" length="14.39" />
	<laneAreaDetector id=":12206245011_7_0" lanes=":12206245011_7_0" pos="0" endPos="4.15" friendlyPos="true" period="60" file="traffic_data.xml" timeThreshold="2.0" speedThreshold="5.0" jamThreshold="75.0" length="4.15" />
	<laneAreaDetector id=":12206245011_8_0" lanes=":12206245011_8_0" pos="0" endPos="1.44" friendlyPos="true" period="60" file="traffic_data.xml" timeThreshold="2.0" speedThreshold="5.0" jamThreshold="75.0" length="1.44" />
	<laneAreaDetector id=":12206245011_10_0" lanes=":12206245011_10_0" pos="0" endPos="10.66" friendlyPos="true" period="60" file="traffic_data.xml" timeThreshold="2.0" speedThreshold="5.0" jamThreshold="75.0" length="10.66" />
	<laneAreaDetector id=":12206245011_11_0" lanes=":12206245011_11_0" pos="0" endPos="3.23" friendlyPos="true" period="60" file="traffic_data.xml" timeThreshold="2.0" speedThreshold="5.0" jamThreshold="75.0" length="3.23" />
	<laneAreaDetector id=":12212785964_0_0" lanes=":12212785964_0_0" pos="0" endPos="10.1" friendlyPos="true" period="60" file="traffic_data.xml" timeThreshold="2.0" speedThreshold="5.0" jamThreshold="75.0" length="10.1" />
	<laneAreaDetector id=":12212785964_1_0" lanes=":12212785964_1_0" pos="0" endPos="4.67" friendlyPos="true" period="60" file="traffic_data.xml" timeThreshold="2.0" speedThreshold="5.0" jamThreshold="75.0" length="4.67" />
	<laneAreaDetector id=":12212785964_2_0" lanes=":12212785964_2_0" pos="0" endPos="9.05" friendlyPos="true" period="60" file="traffic_data.xml" timeThreshold="2.0" speedThreshold="5.0" jamThreshold="75.0" length="9.05" />
	<laneAreaDetector id=":12212785964_3_0" lanes=":12212785964_3_0" pos="0" endPos="14.38" friendlyPos="true" period="60" file="traffic_data.xml" timeThreshold="2.0" speedThreshold="5.0" jamThreshold="75.0" length="14.38" />
	<laneAreaDetector id=":12212785964_3_1" lanes=":12212785964_3_1" pos="0" endPos="14.38" friendlyPos="true" period="60" file="traffic_data.xml" timeThreshold="2.0" speedThreshold="5.0" jamThreshold="75.0" length="14.38" />
	<laneAreaDetector id=":12212785965_0_0" lanes=":12212785965_0_0" pos="0" endPos="9.03" friendlyPos="true" period="60" file="traffic_data.xml" timeThreshold="2.0" speedThreshold="5.0" jamThreshold="75.0" length="9.03" />
	<laneAreaDetector id=":12212785965_1_0" lanes=":12212785965_1_0" pos="0" endPos="4.67" friendlyPos="true" period="60" file="traffic_data.xml" timeThreshold="2.0" speedThreshold="5.0" jamThreshold="75.0" length="4.67" />
	<laneAreaDetector id=":12212785965_2_0" lanes=":12212785965_2_0" pos="0" endPos="9.28" friendlyPos="true" period="60" file="traffic_data.xml" timeThreshold="2.0" speedThreshold="5.0" jamThreshold="75.0" length="9.28" />
	<laneAreaDetector id=":12212785965_3_0" lanes=":12212785965_3_0" pos="0" endPos="14.27" friendlyPos="true" period="60" file="traffic_data.xml" timeThreshold="2.0" speedThreshold="5.0" jamThreshold="75.0" length="14.27" />
	<laneAreaDetector id=":12212785965_3_1" lanes=":12212785965_3_1" pos="0" endPos="14.27" friendlyPos="true" period="60" file="traffic_data.xml" timeThreshold="2.0" speedThreshold="5.0" jamThreshold="75.0" length="14.27" />
	<laneAreaDetector id=":1696704073_0_0" lanes=":1696704073_0_0" pos="0" endPos="9.23" friendlyPos="true" period="60" file="traffic_data.xml" timeThreshold="2.0" speedThreshold="5.0" jamThreshold="75.0" length="9.23" />
	<laneAreaDetector id=":1696704073_1_0" lanes=":1696704073_1_0" pos="0" endPos="10.92" friendlyPos="true" period="60" file="traffic_data.xml" timeThreshold="2.0" speedThreshold="5.0" jamThreshold="75.0" length="10.92" />
	<laneAreaDetector id=":1696704315_0_0" lanes=":1696704315_0_0" pos="0" endPos="5.25" friendlyPos="true" period="60" file="traffic_data.xml" timeThreshold="2.0" speedThreshold="5.0" jamThreshold="75.0" length="5.25" />
	<laneAreaDetector id=":1696704315_1_0" lanes=":1696704315_1_0" pos="0" endPos="4.67" friendlyPos="true" period="60" file="traffic_data.xml" timeThreshold="2.0" speedThreshold="5.0" jamThreshold="75.0" length="4.67" />
	<laneAreaDetector id=":1696704315_2_0" lanes=":1696704315_2_0" pos="0" endPos="5.79" friendlyPos="true" period="60" file="traffic_data.xml" timeThreshold="2.0" speedThreshold="5.0" jamThreshold="75.0" length="5.79" />
	<laneAreaDetector id=":1696704315_3_0" lanes=":1696704315_3_0" pos="0" endPos="9.64" friendlyPos="true" period="60" file="traffic_data.xml" timeThreshold="2.0" speedThreshold="5.0" jamThreshold="75.0" length="9.64" />
	<laneAreaDetector id=":1696704315_3_1" lanes=":1696704315_3_1" pos="0" endPos="9.64" friendlyPos="true" period="60" file="traffic_data.xml" timeThreshold="2.0" speedThreshold="5.0" jamThreshold="75.0" length="9.64" />
	<laneAreaDetector id=":1696704468_0_0" lanes=":1696704468_0_0" pos="0" endPos="14.58" friendlyPos="true" period="60" file="traffic_data.xml" timeThreshold="2.0" speedThreshold="5.0" jamThreshold="75.0" length="14.58" />
	<laneAreaDetector id=":1696704468_0_1" lanes=":1696704468_0_1" pos="0" endPos="14.91" friendlyPos="true" period="60" file="traffic_data.xml" timeThreshold="2.0" speedThreshold="5.0" jamThreshold="75.0" length="14.91" />
	<laneAreaDetector id=":1696704468_0_2" lanes=":1696704468_0_2" pos="0" endPos="16.03" friendlyPos="true" period="60" file="traffic_data.xml" timeThreshold="2.0" speedThreshold="5.0" jamThreshold="75.0" length="16.03" />
	<laneAreaDetector id=":1696704468_0_3" lanes=":1696704468_0_3" pos="0" endPos="17.82" friendlyPos="true" period="60" file="traffic_data.xml" timeThreshold="2.0" speedThreshold="5.0" jamThreshold="75.0" length="17.82" />
	<laneAreaDetector id=":1696704468_4_0" lanes=":1696704468_4_0" pos="0" endPos="18.27" friendlyPos="true" period="60" file="traffic_data.xml" timeThreshold="2.0" speedThreshold="5.0" jamThreshold="75.0" length="18.27" />
	<laneAreaDetector id=":1696704652_0_0" lanes=":1696704652_0_0" pos="0" endPos="10.16" friendlyPos="true" period="60" file="traffic_data.xml" timeThreshold="2.0" speedThreshold="5.0" jamThreshold="75.0" length="10.16" />
	<laneAreaDetector id=":1696704652_1_0" lanes=":1696704652_1_0" pos="0" endPos="14.04" friendlyPos="true" period="60" file="traffic_data.xml" timeThreshold="2.0" speedThreshold="5.0" jamThreshold="75.0" length="14.04" />
	<laneAreaDetector id=":1696704659_0_0" lanes=":1696704659_0_0" pos="0" endPos="8.69" friendlyPos="true" period="60" file="traffic_data.xml" timeThreshold="2.0" speedThreshold="5.0" jamThreshold="75.0" length="8.69" />
	<laneAreaDetector id=":1696704659_1_0" lanes=":1696704659_1_0" pos="0" endPos="6.66" friendlyPos="true" period="60" file="traffic_data.xml" timeThreshold="2.0" speedThreshold="5.0" jamThreshold="75.0" length="6.66" />
	<laneAreaDetector id=":1696704914_0_0" lanes=":1696704914_0_0" pos="0" endPos="7.03" friendlyPos="true" period="60" file="traffic_data.xml" timeThreshold="2.0" speedThreshold="5.0" jamThreshold="75.0" length="7.03" />
	<laneAreaDetector id=":1696704914_1_0" lanes=":1696704914_1_0" pos="0" endPos="7.01" friendlyPos="true" period="60" file="traffic_data.xml" timeThreshold="2.0" speedThreshold="5.0" jamThreshold="75.0" length="7.01" />
	<laneAreaDetector id=":1696704945_0_0" lanes=":1696704945_0_0" pos="0" endPos="9.25" friendlyPos="true" period="60" file="traffic_data.xml" timeThreshold="2.0" speedThreshold="5.0" jamThreshold="75.0" length="9.25" />
	<laneAreaDetector id=":1696704945_1_0" lanes=":1696704945_1_0" pos="0" endPos="9.24" friendlyPos="true" period="60" file="traffic_data.xml" timeThreshold="2.0" speedThreshold="5.0" jamThreshold="75.0" length="9.24" />
	<laneAreaDetector id=":1696704963_0_0" lanes=":1696704963_0_0" pos="0" endPos="8.53" friendlyPos="true" period="60" file="traffic_data.xml" timeThreshold="2.0" speedThreshold="5.0" jamThreshold="75.0" length="8.53" />
	<laneAreaDetector id=":1696704963_0_1" lanes=":1696704963_0_1" pos="0" endPos="9.38" friendlyPos="true" period="60" file="traffic_data.xml" timeThreshold="2.0" speedThreshold="5.0" jamThreshold="75.0" length="9.38" />
	<laneAreaDetector id=":1696704963_2_0" lanes=":1696704963_2_0" pos="0" endPos="9.87" friendlyPos="true" period="60" file="traffic_data.xml" timeThreshold="2.0" speedThreshold="5.0" jamThreshold="75.0" length="9.87" />
	<laneAreaDetector id=":1696705044_0_0" lanes=":1696705044_0_0" pos="0" endPos="4.94" friendlyPos="true" period="60" file="traffic_data.xml" timeThreshold="2.0" speedThreshold="5.0" jamThreshold="75.0" length="4.94" />
	<laneAreaDetector id=":1696705044_0_1" lanes=":1696705044_0_1" pos="0" endPos="4.94" friendlyPos="true" period="60" file="traffic_data.xml" timeThreshold="2.0" speedThreshold="5.0" jamThreshold="75.0" length="4.94" />
	<laneAreaDetector id=":1696705474_0_0" lanes=":1696705474_0_0" pos="0" endPos="8.23" friendlyPos="true" period="60" file="traffic_data.xml" timeThreshold="2.0" speedThreshold="5.0" jamThreshold="75.0" length="8.23" />
	<laneAreaDetector id=":1696705474_0_1" lanes=":1696705474_0_1" pos="0" endPos="10.01" friendlyPos="true" period="60" file="traffic_data.xml" timeThreshold="2.0" speedThreshold="5.0" jamThreshold="75.0" length="10.01" />
	<laneAreaDetector id=":1696705474_2_0" lanes=":1696705474_2_0" pos="0" endPos="11.34" friendlyPos="true" period="60" file="traffic_data.xml" timeThreshold="2.0" speedThreshold="5.0" jamThreshold="75.0" length="11.34" />
	<laneAreaDetector id=":1696705541_0_0" lanes=":1696705541_0_0" pos="0" endPos="9.61" friendlyPos="true" period="60" file="traffic_data.xml" timeThreshold="2.0" speedThreshold="5.0" jamThreshold="75.0" length="9.61" />
	<laneAreaDetector id=":1696705541_1_0" lanes=":1696705541_1_0" pos="0" endPos="11.0" friendlyPos="true" period="60" file="traffic_data.xml" timeThreshold="2.0" speedThreshold="5.0" jamThreshold="75.0" length="11.0" />
	<laneAreaDetector id=":1757587557_0_0" lanes=":1757587557_0_0" pos="0" endPos="14.51" friendlyPos="true" period="60" file="traffic_data.xml" timeThreshold="2.0" speedThreshold="5.0" jamThreshold="75.0" length="14.51" />
	<laneAreaDetector id=":1757587557_1_0" lanes=":1757587557_1_0" pos="0" endPos="3.73" friendlyPos="true" period="60" file="traffic_data.xml" timeThreshold="2.0" speedThreshold="5.0" jamThreshold="75.0" length="3.73" />
	<laneAreaDetector id=":1757587557_2_0" lanes=":1757587557_2_0" pos="0" endPos="1.44" friendlyPos="true" period="60" file="traffic_data.xml" timeThreshold="2.0" speedThreshold="5.0" jamThreshold="75.0" length="1.44" />
	<laneAreaDetector id=":1757587557_9_0" lanes=":1757587557_9_0" pos="0" endPos="10.86" friendlyPos="true" period="60" file="traffic_data.xml" timeThreshold="2.0" speedThreshold="5.0" jamThreshold="75.0" length="10.86" />
	<laneAreaDetector id=":1757587557_10_0" lanes=":1757587557_10_0" pos="0" endPos="3.23" friendlyPos="true" period="60" file="traffic_data.xml" timeThreshold="2.0" speedThreshold="5.0" jamThreshold="75.0" length="3.23" />
	<laneAreaDetector id=":1757587557_3_0" lanes=":1757587557_3_0" pos="0" endPos="10.24" friendlyPos="true" period="60" file="traffic_data.xml" timeThreshold="2.0" speedThreshold="5.0" jamThreshold="75.0" length="10.24" />
	<laneAreaDetector id=":1757587557_4_0" lanes=":1757587557_4_0" pos="0" endPos="15.07" friendlyPos="true" period="60" file="traffic_data.xml" timeThreshold="2.0" speedThreshold="5.0" jamThreshold="75.0" length="15.07" />
	<laneAreaDetector id=":1757587557_5_0" lanes=":1757587557_5_0" pos="0" endPos="4.67" friendlyPos="true" period="60" file="traffic_data.xml" timeThreshold="2.0" speedThreshold="5.0" jamThreshold="75.0" length="4.67" />
	<laneAreaDetector id=":1757587557_6_0" lanes=":1757587557_6_0" pos="0" endPos="9.06" friendlyPos="true" period="60" file="traffic_data.xml" timeThreshold="2.0" speedThreshold="5.0" jamThreshold="75.0" length="9.06" />
	<laneAreaDetector id=":1757587557_7_0" lanes=":1757587557_7_0" pos="0" endPos="14.54" friendlyPos="true" period="60" file="traffic_data.xml" timeThreshold="2.0" speedThreshold="5.0" jamThreshold="75.0" length="14.54" />
	<laneAreaDetector id=":1757587557_8_0" lanes=":1757587557_8_0" pos="0" endPos="1.44" friendlyPos="true" period="60" file="traffic_data.xml" timeThreshold="2.0" speedThreshold="5.0" jamThreshold="75.0" length="1.44" />
	<laneAreaDetector id=":1757587557_11_0" lanes=":1757587557_11_0" pos="0" endPos="3.23" friendlyPos="true" period="60" file="traffic_data.xml" timeThreshold="2.0" speedThreshold="5.0" jamThreshold="75.0" length="3.23" />
	<laneAreaDetector id=":1757587591_0_0" lanes=":1757587591_0_0" pos="0" endPos="11.2" friendlyPos="true" period="60" file="traffic_data.xml" timeThreshold="2.0" speedThreshold="5.0" jamThreshold="75.0" length="11.2" />
	<laneAreaDetector id=":1757587591_1_0" lanes=":1757587591_1_0" pos="0" endPos="15.8" friendlyPos="true" period="60" file="traffic_data.xml" timeThreshold="2.0" speedThreshold="5.0" jamThreshold="75.0" length="15.8" />
	<laneAreaDetector id=":1757587591_2_0" lanes=":1757587591_2_0" pos="0" endPos="15.06" friendlyPos="true" period="60" file="traffic_data.xml" timeThreshold="2.0" speedThreshold="5.0" jamThreshold="75.0" length="15.06" />
	<laneAreaDetector id=":1757587591_3_0" lanes=":1757587591_3_0" pos="0" endPos="4.67" friendlyPos="true" period="60" file="traffic_data.xml" timeThreshold="2.0" speedThreshold="5.0" jamThreshold="75.0" length="4.67" />
	<laneAreaDetector id=":1757587591_4_0" lanes=":1757587591_4_0" pos="0" endPos="9.06" friendlyPos="true" period="60" file="traffic_data.xml" timeThreshold="2.0" speedThreshold="5.0" jamThreshold="75.0" length="9.06" />
	<laneAreaDetector id=":1757587591_5_0" lanes=":1757587591_5_0" pos="0" endPos="15.72" friendlyPos="true" period="60" file="traffic_data.xml" timeThreshold="2.0" speedThreshold="5.0" jamThreshold="75.0" length="15.72" />
	<laneAreaDetector id=":1757587591_6_0" lanes=":1757587591_6_0" pos="0" endPos="4.42" friendlyPos="true" period="60" file="traffic_data.xml" timeThreshold="2.0" speedThreshold="5.0" jamThreshold="75.0" length="4.42" />
	<laneAreaDetector id=":1757587591_7_0" lanes=":1757587591_7_0" pos="0" endPos="1.44" friendlyPos="true" period="60" file="traffic_data.xml" timeThreshold="2.0" speedThreshold="5.0" jamThreshold="75.0" length="1.44" />
	<laneAreaDetector id=":1757587591_16_0" lanes=":1757587591_16_0" pos="0" endPos="11.08" friendlyPos="true" period="60" file="traffic_data.xml" timeThreshold="2.0" speedThreshold="5.0" jamThreshold="75.0" length="11.08" />
	<laneAreaDetector id=":1757587591_17_0" lanes=":1757587591_17_0" pos="0" endPos="3.23" friendlyPos="true" period="60" file="traffic_data.xml" timeThreshold="2.0" speedThreshold="5.0" jamThreshold="75.0" length="3.23" />
	<laneAreaDetector id=":1757587591_8_0" lanes=":1757587591_8_0" pos="0" endPos="10.89" friendlyPos="true" period="60" file="traffic_data.xml" timeThreshold="2.0" speedThreshold="5.0" jamThreshold="75.0" length="10.89" />
	<laneAreaDetector id=":1757587591_9_0" lanes=":1757587591_9_0" pos="0" endPos="15.61" friendlyPos="true" period="60" file="traffic_data.xml" timeThreshold="2.0" speedThreshold="5.0" jamThreshold="75.0" length="15.61" />
	<laneAreaDetector id=":1757587591_10_0" lanes=":1757587591_10_0" pos="0" endPos="14.83" friendlyPos="true" period="60" file="traffic_data.xml" timeThreshold="2.0" speedThreshold="5.0" jamThreshold="75.0" length="14.83" />
	<laneAreaDetector id=":1757587591_11_0" lanes=":1757587591_11_0" pos="0" endPos="4.67" friendlyPos="true" period="60" file="traffic_data.xml" timeThreshold="2.0" speedThreshold="5.0" jamThreshold="75.0" length="4.67" />
	<laneAreaDetector id=":1757587591_12_0" lanes=":1757587591_12_0" pos="0" endPos="9.05" friendlyPos="true" period="60" file="traffic_data.xml" timeThreshold="2.0" speedThreshold="5.0" jamThreshold="75.0" length="9.05" />
	<laneAreaDetector id=":1757587591_13_0" lanes=":1757587591_13_0" pos="0" endPos="15.71" friendlyPos="true" period="60" file="traffic_data.xml" timeThreshold="2.0" speedThreshold="5.0" jamThreshold="75.0" length="15.71" />
	<laneAreaDetector id=":1757587591_14_0" lanes=":1757587591_14_0" pos="0" endPos="4.3" friendlyPos="true" period="60" file="traffic_data.xml" timeThreshold="2.0" speedThreshold="5.0" jamThreshold="75.0" length="4.3" />
	<laneAreaDetector id=":1757587591_15_0" lanes=":1757587591_15_0" pos="0" endPos="1.44" friendlyPos="true" period="60" file="traffic_data.xml" timeThreshold="2.0" speedThreshold="5.0" jamThreshold="75.0" length="1.44" />
	<laneAreaDetector id=":1757587591_18_0" lanes=":1757587591_18_0" pos="0" endPos="11.29" friendlyPos="true" period="60" file="traffic_data.xml" timeThreshold="2.0" speedThreshold="5.0" jamThreshold="75.0" length="11.29" />
	<laneAreaDetector id=":1757587591_19_0" lanes=":1757587591_19_0" pos="0" endPos="3.23" friendlyPos="true" period="60" file="traffic_data.xml" timeThreshold="2.0" speedThreshold="5.0" jamThreshold="75.0" length="3.23" />
	<laneAreaDetector id=":1757587621_0_0" lanes=":1757587621_0_0" pos="0" endPos="9.1" friendlyPos="true" period="60" file="traffic_data.xml" timeThreshold="2.0" speedThreshold="5.0" jamThreshold="75.0" length="9.1" />
	<laneAreaDetector id=":1757587621_1_0" lanes=":1757587621_1_0" pos="0" endPos="14.22" friendlyPos="true" period="60" file="traffic_data.xml" timeThreshold="2.0" speedThreshold="5.0" jamThreshold="75.0" length="14.22" />
	<laneAreaDetector id=":1757587621_2_0" lanes=":1757587621_2_0" pos="0" endPos="4.67" friendlyPos="true" period="60" file="traffic_data.xml" timeThreshold="2.0" speedThreshold="5.0" jamThreshold="75.0" length="4.67" />
	<laneAreaDetector id=":1757587621_3_0" lanes=":1757587621_3_0" pos="0" endPos="9.03" friendlyPos="true" period="60" file="traffic_data.xml" timeThreshold="2.0" speedThreshold="5.0" jamThreshold="75.0" length="9.03" />
	<laneAreaDetector id=":1757587621_4_0" lanes=":1757587621_4_0" pos="0" endPos="14.38" friendlyPos="true" period="60" file="traffic_data.xml" timeThreshold="2.0" speedThreshold="5.0" jamThreshold="75.0" length="14.38" />
	<laneAreaDetector id=":1757587621_5_0" lanes=":1757587621_5_0" pos="0" endPos="1.44" friendlyPos="true" period="60" file="traffic_data.xml" timeThreshold="2.0" speedThreshold="5.0" jamThreshold="75.0" length="1.44" />
	<laneAreaDetector id=":1757587621_9_0" lanes=":1757587621_9_0" pos="0" endPos="3.23" friendlyPos="true" period="60" file="traffic_data.xml" timeThreshold="2.0" speedThreshold="5.0" jamThreshold="75.0" length="3.23" />
	<laneAreaDetector id=":1757587621_6_0" lanes=":1757587621_6_0" pos="0" endPos="14.33" friendlyPos="true" period="60" file="traffic_data.xml" timeThreshold="2.0" speedThreshold="5.0" jamThreshold="75.0" length="14.33" />
	<laneAreaDetector id=":1757587621_7_0" lanes=":1757587621_7_0" pos="0" endPos="3.99" friendlyPos="true" period="60" file="traffic_data.xml" timeThreshold="2.0" speedThreshold="5.0" jamThreshold="75.0" length="3.99" />
	<laneAreaDetector id=":1757587621_8_0" lanes=":1757587621_8_0" pos="0" endPos="1.44" friendlyPos="true" period="60" file="traffic_data.xml" timeThreshold="2.0" speedThreshold="5.0" jamThreshold="75.0" length="1.44" />
	<laneAreaDetector id=":1757587621_10_0" lanes=":1757587621_10_0" pos="0" endPos="10.2" friendlyPos="true" period="60" file="traffic_data.xml" timeThreshold="2.0" speedThreshold="5.0" jamThreshold="75.0" length="10.2" />
	<laneAreaDetector id=":1757587621_11_0" lanes=":1757587621_11_0" pos="0" endPos="3.23" friendlyPos="true" period="60" file="traffic_data.xml" timeThreshold="2.0" speedThreshold="5.0" jamThreshold="75.0" length="3.23" />
	<laneAreaDetector id=":1757587670_0_0" lanes=":1757587670_0_0" pos="0" endPos="4.67" friendlyPos="true" period="60" file="traffic_data.xml" timeThreshold="2.0" speedThreshold="5.0" jamThreshold="75.0" length="4.67" />
	<laneAreaDetector id=":1757587693_0_0" lanes=":1757587693_0_0" pos="0" endPos="9.95" friendlyPos="true" period="60" file="traffic_data.xml" timeThreshold="2.0" speedThreshold="5.0" jamThreshold="75.0" length="9.95" />
	<laneAreaDetector id=":1757587693_1_0" lanes=":1757587693_1_0" pos="0" endPos="14.47" friendlyPos="true" period="60" file="traffic_data.xml" timeThreshold="2.0" speedThreshold="5.0" jamThreshold="75.0" length="14.47" />
	<laneAreaDetector id=":1757587693_2_0" lanes=":1757587693_2_0" pos="0" endPos="1.44" friendlyPos="true" period="60" file="traffic_data.xml" timeThreshold="2.0" speedThreshold="5.0" jamThreshold="75.0" length="1.44" />
	<laneAreaDetector id=":1757587693_9_0" lanes=":1757587693_9_0" pos="0" endPos="3.23" friendlyPos="true" period="60" file="traffic_data.xml" timeThreshold="2.0" speedThreshold="5.0" jamThreshold="75.0" length="3.23" />
	<laneAreaDetector id=":1757587693_3_0" lanes=":1757587693_3_0" pos="0" endPos="14.42" friendlyPos="true" period="60" file="traffic_data.xml" timeThreshold="2.0" speedThreshold="5.0" jamThreshold="75.0" length="14.42" />
	<laneAreaDetector id=":1757587693_4_0" lanes=":1757587693_4_0" pos="0" endPos="4.17" friendlyPos="true" period="60" file="traffic_data.xml" timeThreshold="2.0" speedThreshold="5.0" jamThreshold="75.0" length="4.17" />
	<laneAreaDetector id=":1757587693_5_0" lanes=":1757587693_5_0" pos="0" endPos="1.44" friendlyPos="true" period="60" file="traffic_data.xml" timeThreshold="2.0" speedThreshold="5.0" jamThreshold="75.0" length="1.44" />
	<laneAreaDetector id=":1757587693_10_0" lanes=":1757587693_10_0" pos="0" endPos="10.68" friendlyPos="true" period="60" file="traffic_data.xml" timeThreshold="2.0" speedThreshold="5.0" jamThreshold="75.0" length="10.68" />
	<laneAreaDetector id=":1757587693_11_0" lanes=":1757587693_11_0" pos="0" endPos="3.23" friendlyPos="true" period="60" file="traffic_data.xml" timeThreshold="2.0" speedThreshold="5.0" jamThreshold="75.0" length="3.23" />
	<laneAreaDetector id=":1757587693_6_0" lanes=":1757587693_6_0" pos="0" endPos="9.05" friendlyPos="true" period="60" file="traffic_data.xml" timeThreshold="2.0" speedThreshold="5.0" jamThreshold="75.0" length="9.05" />
	<laneAreaDetector id=":1757587693_7_0" lanes=":1757587693_7_0" pos="0" endPos="14.47" friendlyPos="true" period="60" file="traffic_data.xml" timeThreshold="2.0" speedThreshold="5.0" jamThreshold="75.0" length="14.47" />
	<laneAreaDetector id=":1757587693_8_0" lanes=":1757587693_8_0" pos="0" endPos="4.67" friendlyPos="true" period="60" file="traffic_data.xml" timeThreshold="2.0" speedThreshold="5.0" jamThreshold="75.0" length="4.67" />
	<laneAreaDetector id=":1757587699_0_0" lanes=":1757587699_0_0" pos="0" endPos="4.67" friendlyPos="true" period="60" file="traffic_data.xml" timeThreshold="2.0" speedThreshold="5.0" jamThreshold="75.0" length="4.67" />
	<laneAreaDetector id=":1764799148_0_0" lanes=":1764799148_0_0" pos="0" endPos="14.31" friendlyPos="true" period="60" file="traffic_data.xml" timeThreshold="2.0" speedThreshold="5.0" jamThreshold="75.0" length="14.31" />
	<laneAreaDetector id=":1764799148_1_0" lanes=":1764799148_1_0" pos="0" endPos="4.07" friendlyPos="true" period="60" file="traffic_data.xml" timeThreshold="2.0" speedThreshold="5.0" jamThreshold="75.0" length="4.07" />
	<laneAreaDetector id=":1764799148_2_0" lanes=":1764799148_2_0" pos="0" endPos="1.44" friendlyPos="true" period="60" file="traffic_data.xml" timeThreshold="2.0" speedThreshold="5.0" jamThreshold="75.0" length="1.44" />
	<laneAreaDetector id=":1764799148_9_0" lanes=":1764799148_9_0" pos="0" endPos="10.55" friendlyPos="true" period="60" file="traffic_data.xml" timeThreshold="2.0" speedThreshold="5.0" jamThreshold="75.0" length="10.55" />
	<laneAreaDetector id=":1764799148_10_0" lanes=":1764799148_10_0" pos="0" endPos="3.23" friendlyPos="true" period="60" file="traffic_data.xml" timeThreshold="2.0" speedThreshold="5.0" jamThreshold="75.0" length="3.23" />
	<laneAreaDetector id=":1764799148_3_0" lanes=":1764799148_3_0" pos="0" endPos="9.04" friendlyPos="true" period="60" file="traffic_data.xml" timeThreshold="2.0" speedThreshold="5.0" jamThreshold="75.0" length="9.04" />
	<laneAreaDetector id=":1764799148_4_0" lanes=":1764799148_4_0" pos="0" endPos="14.34" friendlyPos="true" period="60" file="traffic_data.xml" timeThreshold="2.0" speedThreshold="5.0" jamThreshold="75.0" length="14.34" />
	<laneAreaDetector id=":1764799148_5_0" lanes=":1764799148_5_0" pos="0" endPos="4.67" friendlyPos="true" period="60" file="traffic_data.xml" timeThreshold="2.0" speedThreshold="5.0" jamThreshold="75.0" length="4.67" />
	<laneAreaDetector id=":1764799148_6_0" lanes=":1764799148_6_0" pos="0" endPos="9.67" friendlyPos="true" period="60" file="traffic_data.xml" timeThreshold="2.0" speedThreshold="5.0" jamThreshold="75.0" length="9.67" />
	<laneAreaDetector id=":1764799148_7_0" lanes=":1764799148_7_0" pos="0" endPos="14.4" friendlyPos="true" period="60" file="traffic_data.xml" timeThreshold="2.0" speedThreshold="5.0" jamThreshold="75.0" length="14.4" />
	<laneAreaDetector id=":1764799148_8_0" lanes=":1764799148_8_0" pos="0" endPos="1.44" friendlyPos="true" period="60" file="traffic_data.xml" timeThreshold="2.0" speedThreshold="5.0" jamThreshold="75.0" length="1.44" />
	<laneAreaDetector id=":1764799148_11_0" lanes=":1764799148_11_0" pos="0" endPos="3.23" friendlyPos="true" period="60" file="traffic_data.xml" timeThreshold="2.0" speedThreshold="5.0" jamThreshold="75.0" length="3.23" />
	<laneAreaDetector id=":2592182241_0_0" lanes=":2592182241_0_0" pos="0" endPos="14.47" friendlyPos="true" period="60" file="traffic_data.xml" timeThreshold="2.0" speedThreshold="5.0" jamThreshold="75.0" length="14.47" />
	<laneAreaDetector id=":2592182241_1_0" lanes=":2592182241_1_0" pos="0" endPos="4.18" friendlyPos="true" period="60" file="traffic_data.xml" timeThreshold="2.0" speedThreshold="5.0" jamThreshold="75.0" length="4.18" />
	<laneAreaDetector id=":2592182241_2_0" lanes=":2592182241_2_0" pos="0" endPos="1.44" friendlyPos="true" period="60" file="traffic_data.xml" timeThreshold="2.0" speedThreshold="5.0" jamThreshold="75.0" length="1.44" />
	<laneAreaDetector id=":2592182241_9_0" lanes=":2592182241_9_0" pos="0" endPos="10.41" friendlyPos="true" period="60" file="traffic_data.xml" timeThreshold="2.0" speedThreshold="5.0" jamThreshold="75.0" length="10.41" />
	<laneAreaDetector id=":2592182241_10_0" lanes=":2592182241_10_0" pos="0" endPos="3.23" friendlyPos="true" period="60" file="traffic_data.xml" timeThreshold="2.0" speedThreshold="5.0" jamThreshold="75.0" length="3.23" />
	<laneAreaDetector id=":2592182241_3_0" lanes=":2592182241_3_0" pos="0" endPos="9.04" friendlyPos="true" period="60" file="traffic_data.xml" timeThreshold="2.0" speedThreshold="5.0" jamThreshold="75.0" length="9.04" />