<?xml version='1.0' encoding='utf-8'?>
<additional><closing id="accident_0" lane="58404757#0_0" startPos="1.1124226163109334" endPos="11.112422616310933" startTime="77" endTime="832" info="Accident de type major_accident" /><variableSpeedSign id="vss_accident_0" lanes="58404757#0_0"><step time="77" speed="5.0" /><step time="832" speed="-1.0" /></variableSpeedSign><closing id="accident_1" lane="58404764#11_1" startPos="-4.866834166140263" endPos="5.133165833859737" startTime="347" endTime="556" info="Accident de type minor_collision" /><variableSpeedSign id="vss_accident_1" lanes="58404764#11_1"><step time="347" speed="5.0" /><step time="556" speed="-1.0" /></variableSpeedSign><closing id="accident_2" lane="-1111618807#4_0" startPos="16.78587150257973" endPos="26.78587150257973" startTime="15" endTime="965" info="Accident de type major_accident" /><variableSpeedSign id="vss_accident_2" lanes="-1111618807#4_0"><step time="15" speed="5.0" /><step time="965" speed="-1.0" /></variableSpeedSign><closing id="accident_3" lane="58404758#2_0" startPos="7.44834039060547" endPos="17.44834039060547" startTime="193" endTime="1486" info="Accident de type major_accident" /><variableSpeedSign id="vss_accident_3" lanes="58404758#2_0"><step time="193" speed="5.0" /><step time="1486" speed="-1.0" /></variableSpeedSign><closing id="accident_4" lane="58404757#2_1" startPos="-0.9959057301093468" endPos="9.004094269890654" startTime="633" endTime="1273" info="Accident de type broken_car" /><variableSpeedSign id="vss_accident_4" lanes="58404757#2_1"><step time="633" speed="5.0" /><step time="1273" speed="-1.0" /></variableSpeedSign><closing id="accident_5" lane="157453296#6_0" startPos="2.2314298239382193" endPos="12.23142982393822" startTime="10" endTime="1184" info="Accident de type major_accident" /><variableSpeedSign id="vss_accident_5" lanes="157453296#6_0"><step time="10" speed="5.0" /><step time="1184" speed="-1.0" /></variableSpeedSign><closing id="accident_6" lane="58404762#2_1" startPos="58.73090527755362" endPos="68.73090527755362" startTime="256" endTime="445" info="Accident de type minor_collision" /><variableSpeedSign id="vss_accident_6" lanes="58404762#2_1"><step time="256" speed="5.0" /><step time="445" speed="-1.0" /></variableSpeedSign><closing id="accident_7" lane="-36891856#0_0" startPos="380.08679295391096" endPos="390.08679295391096" startTime="402" endTime="865" info="Accident de type broken_car" /><variableSpeedSign id="vss_accident_7" lanes="-36891856#0_0"><step time="402" speed="5.0" /><step time="865" speed="-1.0" /></variableSpeedSign><closing id="accident_8" lane="58404704#1_0" startPos="27.358964562077503" endPos="37.3589645620775" startTime="67" endTime="252" info="Accident de type minor_collision" /><variableSpeedSign id="vss_accident_8" lanes="58404704#1_0"><step time="67" speed="5.0" /><step time="252" speed="-1.0" /></variableSpeedSign><closing id="accident_9" lane="60891741#5_0" startPos="0.023607638058449787" endPos="10.02360763805845" startTime="816" endTime="1139" info="Accident de type minor_collision" /><variableSpeedSign id="vss_accident_9" lanes="60891741#5_0"><step time="816" speed="5.0" /><step time="1139" speed="-1.0" /></variableSpeedSign><closing id="accident_10" lane="58404764#10_0" startPos="-2.8788592534560573" endPos="7.121140746543943" startTime="212" endTime="765" info="Accident de type broken_car" /><variableSpeedSign id="vss_accident_10" lanes="58404764#10_0"><step time="212" speed="5.0" /><step time="765" speed="-1.0" /></variableSpeedSign><closing id="accident_11" lane="511747525#0_1" startPos="35.740013384358136" endPos="45.740013384358136" startTime="979" endTime="1307" info="Accident de type minor_collision" /><variableSpeedSign id="vss_accident_11" lanes="511747525#0_1"><step time="979" speed="5.0" /><step time="1307" speed="-1.0" /></variableSpeedSign><closing id="accident_12" lane="511747525#11_1" startPos="35.35573792599096" endPos="45.35573792599096" startTime="685" endTime="985" info="Accident de type broken_car" /><variableSpeedSign id="vss_accident_12" lanes="511747525#11_1"><step time="685" speed="5.0" /><step time="985" speed="-1.0" /></variableSpeedSign><closing id="accident_13" lane="58404762#2_0" startPos="28.733052302493988" endPos="38.73305230249399" startTime="587" endTime="874" info="Accident de type minor_collision" /><variableSpeedSign id="vss_accident_13" lanes="58404762#2_0"><step time="587" speed="5.0" /><step time="874" speed="-1.0" /></variableSpeedSign><closing id="accident_14" lane="58404764#1_1" startPos="39.46217005140538" endPos="49.46217005140538" startTime="168" endTime="1339" info="Accident de type major_accident" /><variableSpeedSign id="vss_accident_14" lanes="58404764#1_1"><step time="168" speed="5.0" /><step time="1339" speed="-1.0" /></variableSpeedSign><closing id="accident_15" lane="511747525#0_1" startPos="103.0945229214781" endPos="113.0945229214781" startTime="407" endTime="1092" info="Accident de type broken_car" /><variableSpeedSign id="vss_accident_15" lanes="511747525#0_1"><step time="407" speed="5.0" /><step time="1092" speed="-1.0" /></variableSpeedSign><closing id="accident_16" lane="58404764#10-AddedOffRampEdge_0" startPos="55.72202927411012" endPos="65.72202927411013" startTime="160" endTime="764" info="Accident de type major_accident" /><variableSpeedSign id="vss_accident_16" lanes="58404764#10-AddedOffRampEdge_0"><step time="160" speed="5.0" /><step time="764" speed="-1.0" /></variableSpeedSign><closing id="accident_17" lane="58404758#1_1" startPos="2.324494846006571" endPos="12.324494846006571" startTime="1056" endTime="1182" info="Accident de type minor_collision" /><variableSpeedSign id="vss_accident_17" lanes="58404758#1_1"><step time="1056" speed="5.0" /><step time="1182" speed="-1.0" /></variableSpeedSign><closing id="accident_18" lane="391959332#4_0" startPos="-4.456825802010445" endPos="5.543174197989555" startTime="46" endTime="999" info="Accident de type major_accident" /><variableSpeedSign id="vss_accident_18" lanes="391959332#4_0"><step time="46" speed="5.0" /><step time="999" speed="-1.0" /></variableSpeedSign><closing id="accident_19" lane="511747525#10_1" startPos="31.981785483566917" endPos="41.98178548356692" startTime="374" endTime="1116" info="Accident de type broken_car" /><variableSpeedSign id="vss_accident_19" lanes="511747525#10_1"><step time="374" speed="5.0" /><step time="1116" speed="-1.0" /></variableSpeedSign><closing id="accident_20" lane="-58404686#0_0" startPos="55.84151938406214" endPos="65.84151938406214" startTime="365" endTime="831" info="Accident de type broken_car" /><variableSpeedSign id="vss_accident_20" lanes="-58404686#0_0"><step time="365" speed="5.0" /><step time="831" speed="-1.0" /></variableSpeedSign><closing id="accident_21" lane="58404757#4_0" startPos="352.0392709418294" endPos="362.0392709418294" startTime="233" endTime="835" info="Accident de type broken_car" /><variableSpeedSign id="vss_accident_21" lanes="58404757#4_0"><step time="233" speed="5.0" /><step time="835" speed="-1.0" /></variableSpeedSign><closing id="accident_22" lane="58404758#4_1" startPos="2.499953271522519" endPos="12.499953271522518" startTime="421" endTime="985" info="Accident de type broken_car" /><variableSpeedSign id="vss_accident_22" lanes="58404758#4_1"><step time="421" speed="5.0" /><step time="985" speed="-1.0" /></variableSpeedSign><closing id="accident_23" lane="1111618809#3_0" startPos="-0.920618457539077" endPos="9.079381542460922" startTime="526" endTime="1205" info="Accident de type broken_car" /><variableSpeedSign id="vss_accident_23" lanes="1111618809#3_0"><step time="526" speed="5.0" /><step time="1205" speed="-1.0" /></variableSpeedSign><closing id="accident_24" lane="729106752#0_0" startPos="-4.849951210430849" endPos="5.150048789569151" startTime="274" endTime="1015" info="Accident de type broken_car" /><variableSpeedSign id="vss_accident_24" lanes="729106752#0_0"><step time="274" speed="5.0" /><step time="1015" speed="-1.0" /></variableSpeedSign><closing id="accident_25" lane="58404762#7_0" startPos="-2.2785488904993203" endPos="7.72145110950068" startTime="692" endTime="1406" info="Accident de type broken_car" /><variableSpeedSign id="vss_accident_25" lanes="58404762#7_0"><step time="692" speed="5.0" /><step time="1406" speed="-1.0" /></variableSpeedSign><closing id="accident_26" lane="58404757#1_1" startPos="2.8982902401134316" endPos="12.898290240113433" startTime="452" endTime="890" info="Accident de type broken_car" /><variableSpeedSign id="vss_accident_26" lanes="58404757#1_1"><step time="452" speed="5.0" /><step time="890" speed="-1.0" /></variableSpeedSign><closing id="accident_27" lane="515337317#15_1" startPos="1.1569005260823308" endPos="11.156900526082332" startTime="544" endTime="806" info="Accident de type minor_collision" /><variableSpeedSign id="vss_accident_27" lanes="515337317#15_1"><step time="544" speed="5.0" /><step time="806" speed="-1.0" /></variableSpeedSign><closing id="accident_28" lane="157453202#0_2" startPos="-1.9722364800458365" endPos="8.027763519954163" startTime="142" endTime="760" info="Accident de type major_accident" /><variableSpeedSign id="vss_accident_28" lanes="157453202#0_2"><step time="142" speed="5.0" /><step time="760" speed="-1.0" /></variableSpeedSign><closing id="accident_29" lane="58404762#3_0" startPos="0.8785738992492158" endPos="10.878573899249215" startTime="571" endTime="1187" info="Accident de type broken_car" /><variableSpeedSign id="vss_accident_29" lanes="58404762#3_0"><step time="571" speed="5.0" /><step time="1187" speed="-1.0" /></variableSpeedSign><closing id="accident_30" lane="-515287473_0" startPos="5.371197723356591" endPos="15.371197723356591" startTime="100" endTime="410" info="Accident de type broken_car" /><variableSpeedSign id="vss_accident_30" lanes="-515287473_0"><step time="100" speed="5.0" /><step time="410" speed="-1.0" /></variableSpeedSign><closing id="accident_31" lane="-58404686#3_0" startPos="7.252427543824595" endPos="17.252427543824595" startTime="363" endTime="934" info="Accident de type broken_car" /><variableSpeedSign id="vss_accident_31" lanes="-58404686#3_0"><step time="363" speed="5.0" /><step time="934" speed="-1.0" /></variableSpeedSign><closing id="accident_32" lane="60891741#8_0" startPos="63.278941684924405" endPos="73.2789416849244" startTime="89" endTime="1307" info="Accident de type major_accident" /><variableSpeedSign id="vss_accident_32" lanes="60891741#8_0"><step time="89" speed="5.0" /><step time="1307" speed="-1.0" /></variableSpeedSign><closing id="accident_33" lane="58404704#0_0" startPos="78.7024801909772" endPos="88.7024801909772" startTime="723" endTime="1368" info="Accident de type broken_car" /><variableSpeedSign id="vss_accident_33" lanes="58404704#0_0"><step time="723" speed="5.0" /><step time="1368" speed="-1.0" /></variableSpeedSign><closing id="accident_34" lane="58404764#3_1" startPos="47.648636820822595" endPos="57.648636820822595" startTime="596" endTime="1105" info="Accident de type broken_car" /><variableSpeedSign id="vss_accident_34" lanes="58404764#3_1"><step time="596" speed="5.0" /><step time="1105" speed="-1.0" /></variableSpeedSign><closing id="accident_35" lane="157453202#4_2" startPos="2.5498637605533716" endPos="12.549863760553372" startTime="87" endTime="1103" info="Accident de type major_accident" /><variableSpeedSign id="vss_accident_35" lanes="157453202#4_2"><step time="87" speed="5.0" /><step time="1103" speed="-1.0" /></variableSpeedSign><closing id="accident_36" lane="515337317#13_2" startPos="0.5799941987249984" endPos="10.579994198724998" startTime="56" endTime="436" info="Accident de type broken_car" /><variableSpeedSign id="vss_accident_36" lanes="515337317#13_2"><step time="56" speed="5.0" /><step time="436" speed="-1.0" /></variableSpeedSign><closing id="accident_37" lane="515337317#16_1" startPos="30.568986299537826" endPos="40.568986299537826" startTime="457" endTime="803" info="Accident de type minor_collision" /><variableSpeedSign id="vss_accident_37" lanes="515337317#16_1"><step time="457" speed="5.0" /><step time="803" speed="-1.0" /></variableSpeedSign><closing id="accident_38" lane="-1111618807#4_0" startPos="6.729995887260628" endPos="16.72999588726063" startTime="653" endTime="846" info="Accident de type minor_collision" /><variableSpeedSign id="vss_accident_38" lanes="-1111618807#4_0"><step time="653" speed="5.0" /><step time="846" speed="-1.0" /></variableSpeedSign><closing id="accident_39" lane="-321544804#1_0" startPos="11.891713643090597" endPos="21.891713643090597" startTime="583" endTime="1297" info="Accident de type broken_car" /><variableSpeedSign id="vss_accident_39" lanes="-321544804#1_0"><step time="583" speed="5.0" /><step time="1297" speed="-1.0" /></variableSpeedSign><closing id="accident_40" lane="157453296#0_0" startPos="-1.6551847021275954" endPos="8.344815297872405" startTime="141" endTime="994" info="Accident de type major_accident" /><variableSpeedSign id="vss_accident_40" lanes="157453296#0_0"><step time="141" speed="5.0" /><step time="994" speed="-1.0" /></variableSpeedSign><closing id="accident_41" lane="515337317#13_2" startPos="5.1114000833025806" endPos="15.11140008330258" startTime="342" endTime="951" info="Accident de type broken_car" /><variableSpeedSign id="vss_accident_41" lanes="515337317#13_2"><step time="342" speed="5.0" /><step time="951" speed="-1.0" /></variableSpeedSign><closing id="accident_42" lane="515337317#4_1" startPos="7.138770367237008" endPos="17.138770367237008" startTime="40" endTime="935" info="Accident de type major_accident" /><variableSpeedSign id="vss_accident_42" lanes="515337317#4_1"><step time="40" speed="5.0" /><step time="935" speed="-1.0" /></variableSpeedSign><closing id="accident_43" lane="515337317#15_1" startPos="11.015737684289022" endPos="21.01573768428902" startTime="693" endTime="877" info="Accident de type minor_collision" /><variableSpeedSign id="vss_accident_43" lanes="515337317#15_1"><step time="693" speed="5.0" /><step time="877" speed="-1.0" /></variableSpeedSign><closing id="accident_44" lane="157453506#4_0" startPos="-1.6019557565931675" endPos="8.398044243406833" startTime="400" endTime="898" info="Accident de type broken_car" /><variableSpeedSign id="vss_accident_44" lanes="157453506#4_0"><step time="400" speed="5.0" /><step time="898" speed="-1.0" /></variableSpeedSign><closing id="accident_45" lane="511747525#1_0" startPos="42.00518612296911" endPos="52.00518612296911" startTime="821" endTime="1154" info="Accident de type minor_collision" /><variableSpeedSign id="vss_accident_45" lanes="511747525#1_0"><step time="821" speed="5.0" /><step time="1154" speed="-1.0" /></variableSpeedSign><closing id="accident_46" lane="515337317#1_0" startPos="3.329897855106484" endPos="13.329897855106484" startTime="617" endTime="1094" info="Accident de type broken_car" /><variableSpeedSign id="vss_accident_46" lanes="515337317#1_0"><step time="617" speed="5.0" /><step time="1094" speed="-1.0" /></variableSpeedSign><closing id="accident_47" lane="-1111618807#2_0" startPos="32.19566123719841" endPos="42.19566123719841" startTime="439" endTime="581" info="Accident de type minor_collision" /><variableSpeedSign id="vss_accident_47" lanes="-1111618807#2_0"><step time="439" speed="5.0" /><step time="581" speed="-1.0" /></variableSpeedSign><closing id="accident_48" lane="157453506#1_0" startPos="56.3481563940096" endPos="66.3481563940096" startTime="593" endTime="1151" info="Accident de type broken_car" /><variableSpeedSign id="vss_accident_48" lanes="157453506#1_0"><step time="593" speed="5.0" /><step time="1151" speed="-1.0" /></variableSpeedSign><closing id="accident_49" lane="157453296#1_0" startPos="150.42563472507766" endPos="160.42563472507766" startTime="113" endTime="747" info="Accident de type broken_car" /><variableSpeedSign id="vss_accident_49" lanes="157453296#1_0"><step time="113" speed="5.0" /><step time="747" speed="-1.0" /></variableSpeedSign><closing id="accident_50" lane="-60891741#5_0" startPos="3.6525312545002286" endPos="13.652531254500229" startTime="167" endTime="1028" info="Accident de type major_accident" /><variableSpeedSign id="vss_accident_50" lanes="-60891741#5_0"><step time="167" speed="5.0" /><step time="1028" speed="-1.0" /></variableSpeedSign><closing id="accident_51" lane="157453202#4_0" startPos="-1.9550060018072077" endPos="8.044993998192792" startTime="199" endTime="825" info="Accident de type major_accident" /><variableSpeedSign id="vss_accident_51" lanes="157453202#4_0"><step time="199" speed="5.0" /><step time="825" speed="-1.0" /></variableSpeedSign><closing id="accident_52" lane="60891741#1_0" startPos="22.717826577561446" endPos="32.717826577561446" startTime="372" endTime="1070" info="Accident de type broken_car" /><variableSpeedSign id="vss_accident_52" lanes="60891741#1_0"><step time="372" speed="5.0" /><step time="1070" speed="-1.0" /></variableSpeedSign><closing id="accident_53" lane="58404764#10-AddedOffRampEdge_2" startPos="48.26570775527668" endPos="58.26570775527668" startTime="61" endTime="1330" info="Accident de type major_accident" /><variableSpeedSign id="vss_accident_53" lanes="58404764#10-AddedOffRampEdge_2"><step time="61" speed="5.0" /><step time="1330" speed="-1.0" /></variableSpeedSign><closing id="accident_54" lane="60891735#0_0" startPos="-0.5900274979985038" endPos="9.409972502001496" startTime="300" endTime="1009" info="Accident de type broken_car" /><variableSpeedSign id="vss_accident_54" lanes="60891735#0_0"><step time="300" speed="5.0" /><step time="1009" speed="-1.0" /></variableSpeedSign><closing id="accident_55" lane="58404757#0_1" startPos="-0.7140288112494506" endPos="9.28597118875055" startTime="715" endTime="1453" info="Accident de type broken_car" /><variableSpeedSign id="vss_accident_55" lanes="58404757#0_1"><step time="715" speed="5.0" /><step time="1453" speed="-1.0" /></variableSpeedSign><closing id="accident_56" lane="391959332#1_1" startPos="3.7895725760613335" endPos="13.789572576061333" startTime="40" endTime="1286" info="Accident de type major_accident" /><variableSpeedSign id="vss_accident_56" lanes="391959332#1_1"><step time="40" speed="5.0" /><step time="1286" speed="-1.0" /></variableSpeedSign><closing id="accident_57" lane="-1111618807#3_0" startPos="-0.7480236796817028" endPos="9.251976320318297" startTime="529" endTime="1145" info="Accident de type broken_car" /><variableSpeedSign id="vss_accident_57" lanes="-1111618807#3_0"><step time="529" speed="5.0" /><step time="1145" speed="-1.0" /></variableSpeedSign><closing id="accident_58" lane="58404705#2_1" startPos="103.95575531079032" endPos="113.95575531079032" startTime="742" endTime="1471" info="Accident de type broken_car" /><variableSpeedSign id="vss_accident_58" lanes="58404705#2_1"><step time="742" speed="5.0" /><step time="1471" speed="-1.0" /></variableSpeedSign><closing id="accident_59" lane="58404704#1_0" startPos="32.24755060962964" endPos="42.24755060962964" startTime="48" endTime="1142" info="Accident de type major_accident" /><variableSpeedSign id="vss_accident_59" lanes="58404704#1_0"><step time="48" speed="5.0" /><step time="1142" speed="-1.0" /></variableSpeedSign><closing id="accident_60" lane="157453506#2_1" startPos="31.796831017815663" endPos="41.79683101781566" startTime="495" endTime="671" info="Accident de type minor_collision" /><variableSpeedSign id="vss_accident_60" lanes="157453506#2_1"><step time="495" speed="5.0" /><step time="671" speed="-1.0" /></variableSpeedSign><closing id="accident_61" lane="157453202#0_2" startPos="0.08268869663886314" endPos="10.082688696638863" startTime="1098" endTime="1263" info="Accident de type minor_collision" /><variableSpeedSign id="vss_accident_61" lanes="157453202#0_2"><step time="1098" speed="5.0" /><step time="1263" speed="-1.0" /></variableSpeedSign><closing id="accident_62" lane="58404764#8_1" startPos="38.6680963471395" endPos="48.6680963471395" startTime="191" endTime="1137" info="Accident de type major_accident" /><variableSpeedSign id="vss_accident_62" lanes="58404764#8_1"><step time="191" speed="5.0" /><step time="1137" speed="-1.0" /></variableSpeedSign><closing id="accident_63" lane="157453202#0_1" startPos="-2.344225769001001" endPos="7.655774230998999" startTime="553" endTime="1098" info="Accident de type broken_car" /><variableSpeedSign id="vss_accident_63" lanes="157453202#0_1"><step time="553" speed="5.0" /><step time="1098" speed="-1.0" /></variableSpeedSign><closing id="accident_64" lane="60891741#6_0" startPos="4.639691879773574" endPos="14.639691879773574" startTime="497" endTime="1021" info="Accident de type broken_car" /><variableSpeedSign id="vss_accident_64" lanes="60891741#6_0"><step time="497" speed="5.0" /><step time="1021" speed="-1.0" /></variableSpeedSign><closing id="accident_65" lane="-1111618807#5_0" startPos="1.0920082186417845" endPos="11.092008218641784" startTime="443" endTime="837" info="Accident de type broken_car" /><variableSpeedSign id="vss_accident_65" lanes="-1111618807#5_0"><step time="443" speed="5.0" /><step time="837" speed="-1.0" /></variableSpeedSign><closing id="accident_66" lane="515337317#1_1" startPos="1.221057196026747" endPos="11.221057196026747" startTime="157" endTime="526" info="Accident de type minor_collision" /><variableSpeedSign id="vss_accident_66" lanes="515337317#1_1"><step time="157" speed="5.0" /><step time="526" speed="-1.0" /></variableSpeedSign><closing id="accident_67" lane="511747525#11_1" startPos="2.1132476511041496" endPos="12.11324765110415" startTime="51" endTime="189" info="Accident de type minor_collision" /><variableSpeedSign id="vss_accident_67" lanes="511747525#11_1"><step time="51" speed="5.0" /><step time="189" speed="-1.0" /></variableSpeedSign><closing id="accident_68" lane="-515287473_0" startPos="6.647272696489198" endPos="16.647272696489196" startTime="377" endTime="806" info="Accident de type broken_car" /><variableSpeedSign id="vss_accident_68" lanes="-515287473_0"><step time="377" speed="5.0" /><step time="806" speed="-1.0" /></variableSpeedSign><closing id="accident_69" lane="58404757#4_1" startPos="119.11718859380449" endPos="129.11718859380449" startTime="85" endTime="494" info="Accident de type broken_car" /><variableSpeedSign id="vss_accident_69" lanes="58404757#4_1"><step time="85" speed="5.0" /><step time="494" speed="-1.0" /></variableSpeedSign><closing id="accident_70" lane="157453202#2_3" startPos="207.793910263721" endPos="217.793910263721" startTime="802" endTime="1003" info="Accident de type minor_collision" /><variableSpeedSign id="vss_accident_70" lanes="157453202#2_3"><step time="802" speed="5.0" /><step time="1003" speed="-1.0" /></variableSpeedSign><closing id="accident_71" lane="157453536#0_0" startPos="-0.8972536536958291" endPos="9.102746346304171" startTime="86" endTime="786" info="Accident de type broken_car" /><variableSpeedSign id="vss_accident_71" lanes="157453536#0_0"><step time="86" speed="5.0" /><step time="786" speed="-1.0" /></variableSpeedSign><closing id="accident_72" lane="58404757#3_1" startPos="14.330891982714178" endPos="24.330891982714178" startTime="155" endTime="833" info="Accident de type major_accident" /><variableSpeedSign id="vss_accident_72" lanes="58404757#3_1"><step time="155" speed="5.0" /><step time="833" speed="-1.0" /></variableSpeedSign><closing id="accident_73" lane="515337317#15_2" startPos="5.617454066054542" endPos="15.617454066054542" startTime="4" endTime="801" info="Accident de type major_accident" /><variableSpeedSign id="vss_accident_73" lanes="515337317#15_2"><step time="4" speed="5.0" /><step time="801" speed="-1.0" /></variableSpeedSign><closing id="accident_74" lane="58404762#0_0" startPos="57.324690245268776" endPos="67.32469024526878" startTime="11" endTime="240" info="Accident de type minor_collision" /><variableSpeedSign id="vss_accident_74" lanes="58404762#0_0"><step time="11" speed="5.0" /><step time="240" speed="-1.0" /></variableSpeedSign><closing id="accident_75" lane="58404704#1_1" startPos="14.180373057695952" endPos="24.180373057695952" startTime="332" endTime="577" info="Accident de type minor_collision" /><variableSpeedSign id="vss_accident_75" lanes="58404704#1_1"><step time="332" speed="5.0" /><step time="577" speed="-1.0" /></variableSpeedSign><closing id="accident_76" lane="1111618807#9_0" startPos="-2.6325334503619446" endPos="7.367466549638055" startTime="553" endTime="711" info="Accident de type minor_collision" /><variableSpeedSign id="vss_accident_76" lanes="1111618807#9_0"><step time="553" speed="5.0" /><step time="711" speed="-1.0" /></variableSpeedSign><closing id="accident_77" lane="-1111618807#1_0" startPos="28.640221667926447" endPos="38.64022166792645" startTime="818" endTime="1065" info="Accident de type minor_collision" /><variableSpeedSign id="vss_accident_77" lanes="-1111618807#1_0"><step time="818" speed="5.0" /><step time="1065" speed="-1.0" /></variableSpeedSign><closing id="accident_78" lane="60891741#6_0" startPos="21.09076099796606" endPos="31.09076099796606" startTime="96" endTime="823" info="Accident de type major_accident" /><variableSpeedSign id="vss_accident_78" lanes="60891741#6_0"><step time="96" speed="5.0" /><step time="823" speed="-1.0" /></variableSpeedSign><closing id="accident_79" lane="157453536#3_1" startPos="132.4469049812904" endPos="142.4469049812904" startTime="81" endTime="485" info="Accident de type broken_car" /><variableSpeedSign id="vss_accident_79" lanes="157453536#3_1"><step time="81" speed="5.0" /><step time="485" speed="-1.0" /></variableSpeedSign><closing id="accident_80" lane="515337317#15_1" startPos="4.3137866439625245" endPos="14.313786643962525" startTime="888" endTime="1183" info="Accident de type minor_collision" /><variableSpeedSign id="vss_accident_80" lanes="515337317#15_1"><step time="888" speed="5.0" /><step time="1183" speed="-1.0" /></variableSpeedSign><closing id="accident_81" lane="515337317#16_2" startPos="9.50949330160767" endPos="19.50949330160767" startTime="173" endTime="1426" info="Accident de type major_accident" /><variableSpeedSign id="vss_accident_81" lanes="515337317#16_2"><step time="173" speed="5.0" /><step time="1426" speed="-1.0" /></variableSpeedSign><closing id="accident_82" lane="511747525#1_1" startPos="6.773491738172488" endPos="16.77349173817249" startTime="12" endTime="267" info="Accident de type minor_collision" /><variableSpeedSign id="vss_accident_82" lanes="511747525#1_1"><step time="12" speed="5.0" /><step time="267" speed="-1.0" /></variableSpeedSign><closing id="accident_83" lane="391959332#3_1" startPos="4.02316176912502" endPos="14.02316176912502" startTime="91" endTime="1264" info="Accident de type major_accident" /><variableSpeedSign id="vss_accident_83" lanes="391959332#3_1"><step time="91" speed="5.0" /><step time="1264" speed="-1.0" /></variableSpeedSign><closing id="accident_84" lane="60891741#5_0" startPos="7.452810655701839" endPos="17.45281065570184" startTime="18" endTime="574" info="Accident de type broken_car" /><variableSpeedSign id="vss_accident_84" lanes="60891741#5_0"><step time="18" speed="5.0" /><step time="574" speed="-1.0" /></variableSpeedSign><closing id="accident_85" lane="58404757#0_0" startPos="0.6191437297990969" endPos="10.619143729799097" startTime="629" endTime="880" info="Accident de type minor_collision" /><variableSpeedSign id="vss_accident_85" lanes="58404757#0_0"><step time="629" speed="5.0" /><step time="880" speed="-1.0" /></variableSpeedSign><closing id="accident_86" lane="157453202#0_0" startPos="-1.3466738677467718" endPos="8.653326132253229" startTime="602" endTime="818" info="Accident de type minor_collision" /><variableSpeedSign id="vss_accident_86" lanes="157453202#0_0"><step time="602" speed="5.0" /><step time="818" speed="-1.0" /></variableSpeedSign><closing id="accident_87" lane="391959331#0_0" startPos="-1.650253340304173" endPos="8.349746659695827" startTime="21" endTime="1247" info="Accident de type major_accident" /><variableSpeedSign id="vss_accident_87" lanes="391959331#0_0"><step time="21" speed="5.0" /><step time="1247" speed="-1.0" /></variableSpeedSign><closing id="accident_88" lane="511747525#6_1" startPos="83.3313527421998" endPos="93.3313527421998" startTime="402" endTime="748" info="Accident de type minor_collision" /><variableSpeedSign id="vss_accident_88" lanes="511747525#6_1"><step time="402" speed="5.0" /><step time="748" speed="-1.0" /></variableSpeedSign><closing id="accident_89" lane="511747525#11_1" startPos="4.397508261608712" endPos="14.397508261608712" startTime="80" endTime="875" info="Accident de type major_accident" /><variableSpeedSign id="vss_accident_89" lanes="511747525#11_1"><step time="80" speed="5.0" /><step time="875" speed="-1.0" /></variableSpeedSign><closing id="accident_90" lane="157453202#0_3" startPos="-0.31004067762256504" endPos="9.689959322377435" startTime="73" endTime="774" info="Accident de type major_accident" /><variableSpeedSign id="vss_accident_90" lanes="157453202#0_3"><step time="73" speed="5.0" /><step time="774" speed="-1.0" /></variableSpeedSign><closing id="accident_91" lane="515337317#16_0" startPos="19.704844973701004" endPos="29.704844973701004" startTime="685" endTime="1277" info="Accident de type broken_car" /><variableSpeedSign id="vss_accident_91" lanes="515337317#16_0"><step time="685" speed="5.0" /><step time="1277" speed="-1.0" /></variableSpeedSign><closing id="accident_92" lane="58404704#1_0" startPos="12.03629828619539" endPos="22.03629828619539" startTime="92" endTime="1268" info="Accident de type major_accident" /><variableSpeedSign id="vss_accident_92" lanes="58404704#1_0"><step time="92" speed="5.0" /><step time="1268" speed="-1.0" /></variableSpeedSign><closing id="accident_93" lane="391959332#0_1" startPos="49.220710507779245" endPos="59.220710507779245" startTime="498" endTime="1141" info="Accident de type broken_car" /><variableSpeedSign id="vss_accident_93" lanes="391959332#0_1"><step time="49