<?xml version='1.0' encoding='utf-8'?>
<additional><closing id="accident_0" lane="157453296#5_1" startPos="100.22272883464399" endPos="110.22272883464399" startTime="98" endTime="1114" info="Accident de type major_accident" /><variableSpeedSign id="vss_accident_0" lanes="157453296#5_1"><step time="98" speed="5.0" /><step time="1114" speed="-1.0" /></variableSpeedSign><closing id="accident_1" lane="-60891741#8_0" startPos="56.17994835690597" endPos="66.17994835690597" startTime="458" endTime="831" info="Accident de type broken_car" /><variableSpeedSign id="vss_accident_1" lanes="-60891741#8_0"><step time="458" speed="5.0" /><step time="831" speed="-1.0" /></variableSpeedSign><closing id="accident_2" lane="391959331#0_1" startPos="-2.650207733411531" endPos="7.349792266588469" startTime="263" endTime="606" info="Accident de type broken_car" /><variableSpeedSign id="vss_accident_2" lanes="391959331#0_1"><step time="263" speed="5.0" /><step time="606" speed="-1.0" /></variableSpeedSign><closing id="accident_3" lane="-1111618809#3_0" startPos="5.482497761820749" endPos="15.482497761820749" startTime="634" endTime="1299" info="Accident de type broken_car" /><variableSpeedSign id="vss_accident_3" lanes="-1111618809#3_0"><step time="634" speed="5.0" /><step time="1299" speed="-1.0" /></variableSpeedSign><closing id="accident_4" lane="511747525#6_2" startPos="7.001077134070055" endPos="17.001077134070055" startTime="525" endTime="750" info="Accident de type minor_collision" /><variableSpeedSign id="vss_accident_4" lanes="511747525#6_2"><step time="525" speed="5.0" /><step time="750" speed="-1.0" /></variableSpeedSign><closing id="accident_5" lane="36891856#4_0" startPos="15.090719162037182" endPos="25.090719162037182" startTime="149" endTime="1202" info="Accident de type major_accident" /><variableSpeedSign id="vss_accident_5" lanes="36891856#4_0"><step time="149" speed="5.0" /><step time="1202" speed="-1.0" /></variableSpeedSign><closing id="accident_6" lane="157453296#3_1" startPos="5.8491314998706105" endPos="15.84913149987061" startTime="47" endTime="863" info="Accident de type major_accident" /><variableSpeedSign id="vss_accident_6" lanes="157453296#3_1"><step time="47" speed="5.0" /><step time="863" speed="-1.0" /></variableSpeedSign><closing id="accident_7" lane="58404764#7_0" startPos="4.882034033977595" endPos="14.882034033977595" startTime="106" endTime="646" info="Accident de type broken_car" /><variableSpeedSign id="vss_accident_7" lanes="58404764#7_0"><step time="106" speed="5.0" /><step time="646" speed="-1.0" /></variableSpeedSign><closing id="accident_8" lane="58404704#2_0" startPos="-3.2388795011789018" endPos="6.761120498821098" startTime="826" endTime="1079" info="Accident de type minor_collision" /><variableSpeedSign id="vss_accident_8" lanes="58404704#2_0"><step time="826" speed="5.0" /><step time="1079" speed="-1.0" /></variableSpeedSign><closing id="accident_9" lane="58404758#3_1" startPos="13.163493215041953" endPos="23.163493215041953" startTime="107" endTime="768" info="Accident de type broken_car" /><variableSpeedSign id="vss_accident_9" lanes="58404758#3_1"><step time="107" speed="5.0" /><step time="768" speed="-1.0" /></variableSpeedSign><closing id="accident_10" lane="391959332#4_0" startPos="-1.4926876485090275" endPos="8.507312351490972" startTime="134" endTime="484" info="Accident de type broken_car" /><variableSpeedSign id="vss_accident_10" lanes="391959332#4_0"><step time="134" speed="5.0" /><step time="484" speed="-1.0" /></variableSpeedSign><closing id="accident_11" lane="157453296#4_1" startPos="6.405954065424222" endPos="16.405954065424222" startTime="21" endTime="730" info="Accident de type major_accident" /><variableSpeedSign id="vss_accident_11" lanes="157453296#4_1"><step time="21" speed="5.0" /><step time="730" speed="-1.0" /></variableSpeedSign><closing id="accident_12" lane="58404764#3_1" startPos="80.52398783170823" endPos="90.52398783170823" startTime="732" endTime="1424" info="Accident de type broken_car" /><variableSpeedSign id="vss_accident_12" lanes="58404764#3_1"><step time="732" speed="5.0" /><step time="1424" speed="-1.0" /></variableSpeedSign><closing id="accident_13" lane="58404758#1_0" startPos="-1.5093073501422598" endPos="8.49069264985774" startTime="148" endTime="1158" info="Accident de type major_accident" /><variableSpeedSign id="vss_accident_13" lanes="58404758#1_0"><step time="148" speed="5.0" /><step time="1158" speed="-1.0" /></variableSpeedSign><closing id="accident_14" lane="157453536#2_1" startPos="54.14770787098871" endPos="64.14770787098871" startTime="81" endTime="1030" info="Accident de type major_accident" /><variableSpeedSign id="vss_accident_14" lanes="157453536#2_1"><step time="81" speed="5.0" /><step time="1030" speed="-1.0" /></variableSpeedSign><closing id="accident_15" lane="58404764#10-AddedOffRampEdge_0" startPos="54.12559141137051" endPos="64.12559141137051" startTime="44" endTime="1273" info="Accident de type major_accident" /><variableSpeedSign id="vss_accident_15" lanes="58404764#10-AddedOffRampEdge_0"><step time="44" speed="5.0" /><step time="1273" speed="-1.0" /></variableSpeedSign><closing id="accident_16" lane="58404686#3_0" startPos="8.038342771137122" endPos="18.038342771137124" startTime="348" endTime="582" info="Accident de type minor_collision" /><variableSpeedSign id="vss_accident_16" lanes="58404686#3_0"><step time="348" speed="5.0" /><step time="582" speed="-1.0" /></variableSpeedSign><closing id="accident_17" lane="511747525#0_2" startPos="13.148099992774327" endPos="23.148099992774327" startTime="342" endTime="995" info="Accident de type broken_car" /><variableSpeedSign id="vss_accident_17" lanes="511747525#0_2"><step time="342" speed="5.0" /><step time="995" speed="-1.0" /></variableSpeedSign><closing id="accident_18" lane="157453202#1_3" startPos="16.23981174889996" endPos="26.23981174889996" startTime="306" endTime="884" info="Accident de type broken_car" /><variableSpeedSign id="vss_accident_18" lanes="157453202#1_3"><step time="306" speed="5.0" /><step time="884" speed="-1.0" /></variableSpeedSign><closing id="accident_19" lane="58404757#0_1" startPos="0.2664061193738503" endPos="10.266406119373851" startTime="1040" endTime="1329" info="Accident de type minor_collision" /><variableSpeedSign id="vss_accident_19" lanes="58404757#0_1"><step time="1040" speed="5.0" /><step time="1329" speed="-1.0" /></variableSpeedSign><closing id="accident_20" lane="58404704#0_0" startPos="202.63834124580765" endPos="212.63834124580765" startTime="445" endTime="622" info="Accident de type minor_collision" /><variableSpeedSign id="vss_accident_20" lanes="58404704#0_0"><step time="445" speed="5.0" /><step time="622" speed="-1.0" /></variableSpeedSign><closing id="accident_21" lane="-58404686#1_0" startPos="11.920251744529764" endPos="21.920251744529764" startTime="648" endTime="1021" info="Accident de type broken_car" /><variableSpeedSign id="vss_accident_21" lanes="-58404686#1_0"><step time="648" speed="5.0" /><step time="1021" speed="-1.0" /></variableSpeedSign><closing id="accident_22" lane="515337317#8_1" startPos="80.00371540006682" endPos="90.00371540006682" startTime="70" endTime="424" info="Accident de type broken_car" /><variableSpeedSign id="vss_accident_22" lanes="515337317#8_1"><step time="70" speed="5.0" /><step time="424" speed="-1.0" /></variableSpeedSign><closing id="accident_23" lane="58404762#8_1" startPos="15.5817167590315" endPos="25.5817167590315" startTime="831" endTime="1108" info="Accident de type minor_collision" /><variableSpeedSign id="vss_accident_23" lanes="58404762#8_1"><step time="831" speed="5.0" /><step time="1108" speed="-1.0" /></variableSpeedSign><closing id="accident_24" lane="157453506#0_1" startPos="4.154115779780023" endPos="14.154115779780023" startTime="133" endTime="450" info="Accident de type broken_car" /><variableSpeedSign id="vss_accident_24" lanes="157453506#0_1"><step time="133" speed="5.0" /><step time="450" speed="-1.0" /></variableSpeedSign><closing id="accident_25" lane="515337317#13_1" startPos="-0.3212544597032707" endPos="9.67874554029673" startTime="497" endTime="761" info="Accident de type minor_collision" /><variableSpeedSign id="vss_accident_25" lanes="515337317#13_1"><step time="497" speed="5.0" /><step time="761" speed="-1.0" /></variableSpeedSign><closing id="accident_26" lane="511747525#2_0" startPos="0.7393041466866306" endPos="10.739304146686631" startTime="238" endTime="651" info="Accident de type broken_car" /><variableSpeedSign id="vss_accident_26" lanes="511747525#2_0"><step time="238" speed="5.0" /><step time="651" speed="-1.0" /></variableSpeedSign><closing id="accident_27" lane="58404764#2_1" startPos="3.345289874999061" endPos="13.345289874999061" startTime="139" endTime="1341" info="Accident de type major_accident" /><variableSpeedSign id="vss_accident_27" lanes="58404764#2_1"><step time="139" speed="5.0" /><step time="1341" speed="-1.0" /></variableSpeedSign><closing id="accident_28" lane="-60891741#5_0" startPos="-0.40804004439150354" endPos="9.591959955608496" startTime="393" endTime="753" info="Accident de type minor_collision" /><variableSpeedSign id="vss_accident_28" lanes="-60891741#5_0"><step time="393" speed="5.0" /><step time="753" speed="-1.0" /></variableSpeedSign><closing id="accident_29" lane="391959332#3_1" startPos="0.37973487444802423" endPos="10.379734874448024" startTime="89" endTime="941" info="Accident de type major_accident" /><variableSpeedSign id="vss_accident_29" lanes="391959332#3_1"><step time="89" speed="5.0" /><step time="941" speed="-1.0" /></variableSpeedSign><closing id="accident_30" lane="60891741#6_0" startPos="10.619732659055963" endPos="20.619732659055963" startTime="306" endTime="670" info="Accident de type minor_collision" /><variableSpeedSign id="vss_accident_30" lanes="60891741#6_0"><step time="306" speed="5.0" /><step time="670" speed="-1.0" /></variableSpeedSign><closing id="accident_31" lane="58404764#2_0" startPos="4.630997477572096" endPos="14.630997477572096" startTime="11" endTime="327" info="Accident de type minor_collision" /><variableSpeedSign id="vss_accident_31" lanes="58404764#2_0"><step time="11" speed="5.0" /><step time="327" speed="-1.0" /></variableSpeedSign><closing id="accident_32" lane="157453506#4_0" startPos="-4.333329761388879" endPos="5.666670238611121" startTime="317" endTime="841" info="Accident de type broken_car" /><variableSpeedSign id="vss_accident_32" lanes="157453506#4_0"><step time="317" speed="5.0" /><step time="841" speed="-1.0" /></variableSpeedSign><closing id="accident_33" lane="515337317#13_2" startPos="-2.5953054400593025" endPos="7.4046945599406975" startTime="283" endTime="709" info="Accident de type broken_car" /><variableSpeedSign id="vss_accident_33" lanes="515337317#13_2"><step time="283" speed="5.0" /><step time="709" speed="-1.0" /></variableSpeedSign><closing id="accident_34" lane="58404762#0_1" startPos="29.189039664164476" endPos="39.189039664164476" startTime="82" endTime="622" info="Accident de type broken_car" /><variableSpeedSign id="vss_accident_34" lanes="58404762#0_1"><step time="82" speed="5.0" /><step time="622" speed="-1.0" /></variableSpeedSign><closing id="accident_35" lane="515337317#15_0" startPos="8.635074761088335" endPos="18.635074761088333" startTime="357" endTime="947" info="Accident de type broken_car" /><variableSpeedSign id="vss_accident_35" lanes="515337317#15_0"><step time="357" speed="5.0" /><step time="947" speed="-1.0" /></variableSpeedSign><closing id="accident_36" lane="58404764#10-AddedOffRampEdge_0" startPos="39.200010918579714" endPos="49.200010918579714" startTime="115" endTime="517" info="Accident de type broken_car" /><variableSpeedSign id="vss_accident_36" lanes="58404764#10-AddedOffRampEdge_0"><step time="115" speed="5.0" /><step time="517" speed="-1.0" /></variableSpeedSign><closing id="accident_37" lane="391959331#2_0" startPos="81.55092173085727" endPos="91.55092173085727" startTime="520" endTime="906" info="Accident de type broken_car" /><variableSpeedSign id="vss_accident_37" lanes="391959331#2_0"><step time="520" speed="5.0" /><step time="906" speed="-1.0" /></variableSpeedSign><closing id="accident_38" lane="-58404686#1_0" startPos="15.963122226152777" endPos="25.963122226152777" startTime="1004" endTime="1196" info="Accident de type minor_collision" /><variableSpeedSign id="vss_accident_38" lanes="-58404686#1_0"><step time="1004" speed="5.0" /><step time="1196" speed="-1.0" /></variableSpeedSign><closing id="accident_39" lane="-60891741#2_0" startPos="19.15215039294618" endPos="29.15215039294618" startTime="280" endTime="794" info="Accident de type broken_car" /><variableSpeedSign id="vss_accident_39" lanes="-60891741#2_0"><step time="280" speed="5.0" /><step time="794" speed="-1.0" /></variableSpeedSign><closing id="accident_40" lane="58404757#1_0" startPos="18.90776726485589" endPos="28.90776726485589" startTime="571" endTime="953" info="Accident de type broken_car" /><variableSpeedSign id="vss_accident_40" lanes="58404757#1_0"><step time="571" speed="5.0" /><step time="953" speed="-1.0" /></variableSpeedSign><closing id="accident_41" lane="58404704#2_1" startPos="-3.0823159024410596" endPos="6.91768409755894" startTime="48" endTime="583" info="Accident de type broken_car" /><variableSpeedSign id="vss_accident_41" lanes="58404704#2_1"><step time="48" speed="5.0" /><step time="583" speed="-1.0" /></variableSpeedSign><closing id="accident_42" lane="58404762#8_1" startPos="12.989254406975885" endPos="22.989254406975885" startTime="12" endTime="687" info="Accident de type major_accident" /><variableSpeedSign id="vss_accident_42" lanes="58404762#8_1"><step time="12" speed="5.0" /><step time="687" speed="-1.0" /></variableSpeedSign><closing id="accident_43" lane="391959331#1_1" startPos="-2.024485206640713" endPos="7.975514793359287" startTime="399" endTime="988" info="Accident de type broken_car" /><variableSpeedSign id="vss_accident_43" lanes="391959331#1_1"><step time="399" speed="5.0" /><step time="988" speed="-1.0" /></variableSpeedSign><closing id="accident_44" lane="58404704#0_0" startPos="42.475494336698844" endPos="52.475494336698844" startTime="290" endTime="516" info="Accident de type minor_collision" /><variableSpeedSign id="vss_accident_44" lanes="58404704#0_0"><step time="290" speed="5.0" /><step time="516" speed="-1.0" /></variableSpeedSign><closing id="accident_45" lane="58404764#10-AddedOffRampEdge_2" startPos="44.75671336508798" endPos="54.75671336508798" startTime="605" endTime="1292" info="Accident de type broken_car" /><variableSpeedSign id="vss_accident_45" lanes="58404764#10-AddedOffRampEdge_2"><step time="605" speed="5.0" /><step time="1292" speed="-1.0" /></variableSpeedSign><closing id="accident_46" lane="58404704#2_1" startPos="3.250712078952617" endPos="13.250712078952617" startTime="20" endTime="1213" info="Accident de type major_accident" /><variableSpeedSign id="vss_accident_46" lanes="58404704#2_1"><step time="20" speed="5.0" /><step time="1213" speed="-1.0" /></variableSpeedSign><closing id="accident_47" lane="58404757#3_1" startPos="15.864080113172612" endPos="25.864080113172612" startTime="162" endTime="869" info="Accident de type broken_car" /><variableSpeedSign id="vss_accident_47" lanes="58404757#3_1"><step time="162" speed="5.0" /><step time="869" speed="-1.0" /></variableSpeedSign><closing id="accident_48" lane="58404762#11_0" startPos="-2.4050578994377663" endPos="7.594942100562234" startTime="789" endTime="1156" info="Accident de type minor_collision" /><variableSpeedSign id="vss_accident_48" lanes="58404762#11_0"><step time="789" speed="5.0" /><step time="1156" speed="-1.0" /></variableSpeedSign><closing id="accident_49" lane="511747525#2_2" startPos="4.6976218978648525" endPos="14.697621897864853" startTime="70" endTime="900" info="Accident de type major_accident" /><variableSpeedSign id="vss_accident_49" lanes="511747525#2_2"><step time="70" speed="5.0" /><step time="900" speed="-1.0" /></variableSpeedSign><closing id="accident_50" lane="58404758#3_1" startPos="1.0057499269259527" endPos="11.005749926925953" startTime="10" endTime="328" info="Accident de type minor_collision" /><variableSpeedSign id="vss_accident_50" lanes="58404758#3_1"><step time="10" speed="5.0" /><step time="328" speed="-1.0" /></variableSpeedSign><closing id="accident_51" lane="157453202#2_0" startPos="126.99573358163443" endPos="136.99573358163443" startTime="674" endTime="1215" info="Accident de type broken_car" /><variableSpeedSign id="vss_accident_51" lanes="157453202#2_0"><step time="674" speed="5.0" /><step time="1215" speed="-1.0" /></variableSpeedSign><closing id="accident_52" lane="515337317#1_0" startPos="2.506434856741172" endPos="12.506434856741173" startTime="411" endTime="535" info="Accident de type minor_collision" /><variableSpeedSign id="vss_accident_52" lanes="515337317#1_0"><step time="411" speed="5.0" /><step time="535" speed="-1.0" /></variableSpeedSign><closing id="accident_53" lane="157453202#0_1" startPos="-0.19696485183597012" endPos="9.80303514816403" startTime="170" endTime="1266" info="Accident de type major_accident" /><variableSpeedSign id="vss_accident_53" lanes="157453202#0_1"><step time="170" speed="5.0" /><step time="1266" speed="-1.0" /></variableSpeedSign><closing id="accident_54" lane="58404762#0_1" startPos="86.06335466286345" endPos="96.06335466286345" startTime="86" endTime="1260" info="Accident de type major_accident" /><variableSpeedSign id="vss_accident_54" lanes="58404762#0_1"><step time="86" speed="5.0" /><step time="1260" speed="-1.0" /></variableSpeedSign><closing id="accident_55" lane="1318919008#1_1" startPos="55.78065729995903" endPos="65.78065729995903" startTime="116" endTime="779" info="Accident de type major_accident" /><variableSpeedSign id="vss_accident_55" lanes="1318919008#1_1"><step time="116" speed="5.0" /><step time="779" speed="-1.0" /></variableSpeedSign><closing id="accident_56" lane="58404757#3_1" startPos="63.577852429450644" endPos="73.57785242945064" startTime="92" endTime="1080" info="Accident de type major_accident" /><variableSpeedSign id="vss_accident_56" lanes="58404757#3_1"><step time="92" speed="5.0" /><step time="1080" speed="-1.0" /></variableSpeedSign><closing id="accident_57" lane="58404758#2_1" startPos="1.8830177374935761" endPos="11.883017737493576" startTime="9" endTime="861" info="Accident de type major_accident" /><variableSpeedSign id="vss_accident_57" lanes="58404758#2_1"><step time="9" speed="5.0" /><step time="861" speed="-1.0" /></variableSpeedSign><closing id="accident_58" lane="321544804#0_0" startPos="0.16872183404237262" endPos="10.168721834042373" startTime="531" endTime="991" info="Accident de type broken_car" /><variableSpeedSign id="vss_accident_58" lanes="321544804#0_0"><step time="531" speed="5.0" /><step time="991" speed="-1.0" /></variableSpeedSign><closing id="accident_59" lane="-60891735#3_0" startPos="14.588908752303041" endPos="24.58890875230304" startTime="97" endTime="847" info="Accident de type major_accident" /><variableSpeedSign id="vss_accident_59" lanes="-60891735#3_0"><step time="97" speed="5.0" /><step time="847" speed="-1.0" /></variableSpeedSign><closing id="accident_60" lane="58404757#4_1" startPos="347.82378659977655" endPos="357.82378659977655" startTime="146" endTime="1411" info="Accident de type major_accident" /><variableSpeedSign id="vss_accident_60" lanes="58404757#4_1"><step time="146" speed="5.0" /><step time="1411" speed="-1.0" /></variableSpeedSign><closing id="accident_61" lane="157453506#0_0" startPos="-0.9864494966097306" endPos="9.01355050339027" startTime="257" endTime="661" info="Accident de type broken_car" /><variableSpeedSign id="vss_accident_61" lanes="157453506#0_0"><step time="257" speed="5.0" /><step time="661" speed="-1.0" /></variableSpeedSign><closing id="accident_62" lane="58404764#0_0" startPos="-3.621867250475544" endPos="6.378132749524456" startTime="54" endTime="1097" info="Accident de type major_accident" /><variableSpeedSign id="vss_accident_62" lanes="58404764#0_0"><step time="54" speed="5.0" /><step time="1097" speed="-1.0" /></variableSpeedSign><closing id="accident_63" lane="391959331#0_0" startPos="-2.7459775638097463" endPos="7.254022436190254" startTime="258" endTime="673" info="Accident de type broken_car" /><variableSpeedSign id="vss_accident_63" lanes="391959331#0_0"><step time="258" speed="5.0" /><step time="673" speed="-1.0" /></variableSpeedSign><closing id="accident_64" lane="58404764#2_0" startPos="8.11703901719559" endPos="18.11703901719559" startTime="270" endTime="595" info="Accident de type minor_collision" /><variableSpeedSign id="vss_accident_64" lanes="58404764#2_0"><step time="270" speed="5.0" /><step time="595" speed="-1.0" /></variableSpeedSign><closing id="accident_65" lane="157453202#0_2" startPos="0.37091019972892525" endPos="10.370910199728925" startTime="91" endTime="885" info="Accident de type major_accident" /><variableSpeedSign id="vss_accident_65" lanes="157453202#0_2"><step time="91" speed="5.0" /><step time="885" speed="-1.0" /></variableSpeedSign><closing id="accident_66" lane="157453536#0_1" startPos="-0.48555809682263806" endPos="9.514441903177362" startTime="64" endTime="976" info="Accident de type major_accident" /><variableSpeedSign id="vss_accident_66" lanes="157453536#0_1"><step time="64" speed="5.0" /><step time="976" speed="-1.0" /></variableSpeedSign><closing id="accident_67" lane="391959331#0_0" startPos="-4.49822941026116" endPos="5.50177058973884" startTime="145" endTime="804" info="Accident de type major_accident" /><variableSpeedSign id="vss_accident_67" lanes="391959331#0_0"><step time="145" speed="5.0" /><step time="804" speed="-1.0" /></variableSpeedSign><closing id="accident_68" lane="58404762#7_1" startPos="3.234496296283748" endPos="13.234496296283748" startTime="1050" endTime="1245" info="Accident de type minor_collision" /><variableSpeedSign id="vss_accident_68" lanes="58404762#7_1"><step time="1050" speed="5.0" /><step time="1245" speed="-1.0" /></variableSpeedSign><closing id="accident_69" lane="58404764#8_0" startPos="47.93258863976797" endPos="57.93258863976797" startTime="655" endTime="1244" info="Accident de type broken_car" /><variableSpeedSign id="vss_accident_69" lanes="58404764#8_0"><step time="655" speed="5.0" /><step time="1244" speed="-1.0" /></variableSpeedSign><closing id="accident_70" lane="58404758#1_0" startPos="9.126396656080207" endPos="19.126396656080207" startTime="51" endTime="1220" info="Accident de type major_accident" /><variableSpeedSign id="vss_accident_70" lanes="58404758#1_0"><step time="51" speed="5.0" /><step time="1220" speed="-1.0" /></variableSpeedSign><closing id="accident_71" lane="157453296#6_0" startPos="1.5777356453968405" endPos="11.57773564539684" startTime="72" endTime="707" info="Accident de type major_accident" /><variableSpeedSign id="vss_accident_71" lanes="157453296#6_0"><step time="72" speed="5.0" /><step time="707" speed="-1.0" /></variableSpeedSign><closing id="accident_72" lane="511747525#3_0" startPos="7.743573503437101" endPos="17.7435735034371" startTime="435" endTime="962" info="Accident de type broken_car" /><variableSpeedSign id="vss_accident_72" lanes="511747525#3_0"><step time="435" speed="5.0" /><step time="962" speed="-1.0" /></variableSpeedSign><closing id="accident_73" lane="-1111618807#1_0" startPos="19.793075971542567" endPos="29.793075971542567" startTime="541" endTime="862" info="Accident de type broken_car" /><variableSpeedSign id="vss_accident_73" lanes="-1111618807#1_0"><step time="541" speed="5.0" /><step time="862" speed="-1.0" /></variableSpeedSign><closing id="accident_74" lane="1111618809#5_0" startPos="12.332611394086122" endPos="22.332611394086122" startTime="109" endTime="770" info="Accident de type broken_car" /><variableSpeedSign id="vss_accident_74" lanes="1111618809#5_0"><step time="109" speed="5.0" /><step time="770" speed="-1.0" /></variableSpeedSign><closing id="accident_75" lane="58404762#4_0" startPos="28.274910255298238" endPos="38.27491025529824" startTime="430" endTime="962" info="Accident de type broken_car" /><variableSpeedSign id="vss_accident_75" lanes="58404762#4_0"><step time="430" speed="5.0" /><step time="962" speed="-1.0" /></variableSpeedSign><closing id="accident_76" lane="157453296#3_1" startPos="13.005804434523881" endPos="23.00580443452388" startTime="655" endTime="986" info="Accident de type broken_car" /><variableSpeedSign id="vss_accident_76" lanes="157453296#3_1"><step time="655" speed="5.0" /><step time="986" speed="-1.0" /></variableSpeedSign><closing id="accident_77" lane="58404762#7_1" startPos="3.568194120918024" endPos="13.568194120918024" startTime="14" endTime="617" info="Accident de type major_accident" /><variableSpeedSign id="vss_accident_77" lanes="58404762#7_1"><step time="14" speed="5.0" /><step time="617" speed="-1.0" /></variableSpeedSign><closing id="accident_78" lane="58404758#3_0" startPos="-0.7654370290720456" endPos="9.234562970927954" startTime="366" endTime="623" info="Accident de type minor_collision" /><variableSpeedSign id="vss_accident_78" lanes="58404758#3_0"><step time="366" speed="5.0" /><step time="623" speed="-1.0" /></variableSpeedSign><closing id="accident_79" lane="-321544804#1_0" startPos="17.658451864091248" endPos="27.658451864091248" startTime="429" endTime="654" info="Accident de type minor_collision" /><variableSpeedSign id="vss_accident_79" lanes="-321544804#1_0"><step time="429" speed="5.0" /><step time="654" speed="-1.0" /></variableSpeedSign><closing id="accident_80" lane="391959332#0_0" startPos="39.164385706602204" endPos="49.164385706602204" startTime="37" endTime="325" info="Accident de type minor_collision" /><variableSpeedSign id="vss_accident_80" lanes="391959332#0_0"><step time="37" speed="5.0" /><step time="325" speed="-1.0" /></variableSpeedSign><closing id="accident_81" lane="511747525#0_0" startPos="123.53356631135512" endPos="133.53356631135512" startTime="110" endTime="730" info="Accident de type broken_car" /><variableSpeedSign id="vss_accident_81" lanes="511747525#0_0"><step time="110" speed="5.0" /><step time="730" speed="-1.0" /></variableSpeedSign><closing id="accident_82" lane="515337317#13_2" startPos="1.3150786647395094" endPos="11.31507866473951" startTime="109" endTime="766" info="Accident de type major_accident" /><variableSpeedSign id="vss_accident_82" lanes="515337317#13_2"><step time="109" speed="5.0" /><step time="766" speed="-1.0" /></variableSpeedSign><closing id="accident_83" lane="60891735#3_0" startPos="29.977629472905612" endPos="39.97762947290561" startTime="161" endTime="1206" info="Accident de type major_accident" /><variableSpeedSign id="vss_accident_83" lanes="60891735#3_0"><step time="161" speed="5.0" /><step time="1206" speed="-1.0" /></variableSpeedSign><closing id="accident_84" lane="-58404686#1_0" startPos="-1.370044898987071" endPos="8.629955101012929" startTime="70" endTime="1207" info="Accident de type major_accident" /><variableSpeedSign id="vss_accident_84" lanes="-58404686#1_0"><step time="70" speed="5.0" /><step time="1207" speed="-1.0" /></variableSpeedSign><closing id="accident_85" lane="-1111618809#3_0" startPos="4.984153241275298" endPos="14.984153241275298" startTime="674" endTime="1073" info="Accident de type broken_car" /><variableSpeedSign id="vss_accident_85" lanes="-1111618809#3_0"><step time="674" speed="5.0" /><step time="1073" speed="-1.0" /></variableSpeedSign><closing id="accident_86" lane="460887186#0_0" startPos="10.630198580884347" endPos="20.630198580884347" startTime="648" endTime="1099" info="Accident de type broken_car" /><variableSpeedSign id="vss_accident_86" lanes="460887186#0_0"><step time="648" speed="5.0" /><step time="1099" speed="-1.0" /></variableSpeedSign><closing id="accident_87" lane="58404757#0_0" startPos="0.9483716192231064" endPos="10.948371619223106" startTime="1079" endTime="1200" info="Accident de type minor_collision" /><variableSpeedSign id="vss_accident_87" lanes="58404757#0_0"><step time="1079" speed="5.0" /><step time="1200" speed="-1.0" /></variableSpeedSign><closing id="accident_88" lane="515337317#11_0" startPos="43.38473355296621" endPos="53.38473355296621" startTime="15" endTime="839" info="Accident de type major_accident" /><variableSpeedSign id="vss_accident_88" lanes="515337317#11_0"><step time="15" speed="5.0" /><step time="839" speed="-1.0" /></variableSpeedSign><closing id="accident_89" lane="58404757#3_0" startPos="22.796340054421467" endPos="32.796340054421464" startTime="897" endTime="1088" info="Accident de type minor_collision" /><variableSpeedSign id="vss_accident_89" lanes="58404757#3_0"><step time="897" speed="5.0" /><step time="1088" speed="-1.0" /></variableSpeedSign><closing id="accident_90" lane="58404757#1_1" startPos="5.610974945944761" endPos="15.610974945944761" startTime="138" endTime="795" info="Accident de type broken_car" /><variableSpeedSign id="vss_accident_90" lanes="58404757#1_1"><step time="138" speed="5.0" /><step time="795" speed="-1.0" /></variableSpeedSign><closing id="accident_91" lane="511747525#2_1" startPos="3.6054109782182504" endPos="13.60541097821825" startTime="20" endTime="1250" info="Accident de type major_accident" /><variableSpeedSign id="vss_accident_91" lanes="511747525#2_1"><step time="20" speed="5.0" /><step time="1250" speed="-1.0" /></variableSpeedSign><closing id="accident_92" lane="1111618808#1_0" startPos="-4.074064856577545" endPos="5.925935143422455" startTime="33" endTime="981" info="Accident de type major_accident" /><variableSpeedSign id="vss_accident_92" lanes="1111618808#1_0"><step time="33" speed="5.0" /><step time="981" speed="-1.0" /></variableSpeedSign><closing id="accident_93" lane="-1111618807#9_0" startPos="0.5135963927409808" endPos="10.51359639274098" startTime="283" endTime="930" info="Accident de type broken_car" /><variableSpeedSign id="vss_accident_93" lanes="-1111618807#9_0"><step time="2