<?xml version='1.0' encoding='utf-8'?>
<routes xmlns:xsi="http://www.w3.org/2001/XMLSchema-instance" xsi:noNamespaceSchemaLocation="http://sumo.dlr.de/xsd/routes_file.xsd"><vType id="taxi" length="4.5" minGap="2.5" /><vType id="truck" length="10.0" minGap="3.0" /><vType id="motorcycle" length="2.0" minGap="1.0" /><vehicle id="personal_vehicule" depart="0" type="taxi"><route edges="-301973121#0" /></vehicle><vehicle id="0" depart="0" type="motorcycle"><route edges="-463302460#0" /></vehicle><vehicle id="1" depart="1" type="truck"><route edges="301973099#0" /></vehicle><vehicle id="2" depart="1" type="taxi"><route edges="-60892422#3" /></vehicle><vehicle id="3" depart="1" type="taxi"><route edges="60892427#1" /></vehicle><vehicle id="4" depart="1" type="motorcycle"><route edges="-576086165#1" /></vehicle><vehicle id="5" depart="1" type="motorcycle"><route edges="-60892438" /></vehicle><vehicle id="6" depart="1" type="motorcycle"><route edges="60892428#5" /></vehicle><vehicle id="7" depart="1" type="truck"><route edges="60891725#2" /></vehicle><vehicle id="8" depart="2" type="taxi"><route edges="-60891746#0" /></vehicle><vehicle id="9" depart="2" type="motorcycle"><route edges="-60891740#6" /></vehicle><vehicle id="10" depart="2" type="taxi"><route edges="60892432#4" /></vehicle><vehicle id="11" depart="2" type="taxi"><route edges="60892433#4" /></vehicle><vehicle id="12" depart="2" type="motorcycle"><route edges="60891744#1" /></vehicle><vehicle id="13" depart="2" type="taxi"><route edges="515367766#2" /></vehicle><vehicle id="14" depart="2" type="taxi"><route edges="-301973106#2" /></vehicle><vehicle id="15" depart="2" type="motorcycle"><route edges="58404674#0" /></vehicle><vehicle id="16" depart="3" type="truck"><route edges="391255044#1" /></vehicle><vehicle id="17" depart="3" type="taxi"><route edges="-576086199#0" /></vehicle><vehicle id="18" depart="3" type="motorcycle"><route edges="515337317#4" /></vehicle><vehicle id="19" depart="3" type="taxi"><route edges="-576086139#3" /></vehicle><vehicle id="20" depart="3" type="truck"><route edges="590203783#0" /></vehicle><vehicle id="21" depart="3" type="truck"><route edges="60892422#2" /></vehicle><vehicle id="22" depart="3" type="motorcycle"><route edges="-60891741#6" /></vehicle><vehicle id="23" depart="3" type="truck"><route edges="576115223" /></vehicle><vehicle id="24" depart="3" type="truck"><route edges="301973121#1" /></vehicle><vehicle id="25" depart="4" type="taxi"><route edges="-60891741#2" /></vehicle><vehicle id="26" depart="7" type="truck"><route edges="301972997#5" /></vehicle><vehicle id="27" depart="7" type="truck"><route edges="58404705#0" /></vehicle><vehicle id="28" depart="8" type="motorcycle"><route edges="-576086141#1" /></vehicle><vehicle id="29" depart="8" type="motorcycle"><route edges="729106753#1" /></vehicle><vehicle id="30" depart="8" type="taxi"><route edges="-60891748#0" /></vehicle><vehicle id="31" depart="8" type="motorcycle"><route edges="-60892422#2" /></vehicle><vehicle id="32" depart="8" type="truck"><route edges="36891856#4" /></vehicle><vehicle id="33" depart="8" type="motorcycle"><route edges="60892437#3" /></vehicle><vehicle id="34" depart="8" type="motorcycle"><route edges="-463302460#0" /></vehicle><vehicle id="35" depart="8" type="motorcycle"><route edges="36891856#3" /></vehicle><vehicle id="36" depart="8" type="taxi"><route edges="60891733#2" /></vehicle><vehicle id="37" depart="8" type="truck"><route edges="-578198396#2" /></vehicle><vehicle id="38" depart="8" type="motorcycle"><route edges="58404674#1" /></vehicle><vehicle id="39" depart="8" type="motorcycle"><route edges="60892437#4" /></vehicle><vehicle id="40" depart="8" type="truck"><route edges="-58404686#3" /></vehicle><vehicle id="41" depart="8" type="truck"><route edges="729106753#0" /></vehicle><vehicle id="42" depart="8" type="motorcycle"><route edges="-253266093#1" /></vehicle><vehicle id="43" depart="8" type="truck"><route edges="60892422#3" /></vehicle><vehicle id="44" depart="8" type="taxi"><route edges="-576086199#0" /></vehicle><vehicle id="45" depart="8" type="motorcycle"><route edges="-301973099#4" /></vehicle><vehicle id="46" depart="8" type="motorcycle"><route edges="-60891758#3" /></vehicle><vehicle id="47" depart="8" type="truck"><route edges="-60892422#2" /></vehicle><vehicle id="48" depart="10" type="motorcycle"><route edges="58404674#2" /></vehicle><vehicle id="49" depart="10" type="truck"><route edges="-60891751#0" /></vehicle><vehicle id="50" depart="10" type="truck"><route edges="-60891725#2" /></vehicle><vehicle id="51" depart="10" type="taxi"><route edges="576086197" /></vehicle><vehicle id="52" depart="10" type="truck"><route edges="60891748#1" /></vehicle><vehicle id="53" depart="10" type="truck"><route edges="58404758#5" /></vehicle><vehicle id="54" depart="10" type="taxi"><route edges="-301973099#2" /></vehicle><vehicle id="55" depart="10" type="taxi"><route edges="-60891751#0" /></vehicle><vehicle id="56" depart="10" type="motorcycle"><route edges="-58404686#0" /></vehicle><vehicle id="57" depart="11" type="motorcycle"><route edges="253266087#1" /></vehicle><vehicle id="58" depart="11" type="taxi"><route edges="515337317#0" /></vehicle><vehicle id="59" depart="11" type="taxi"><route edges="-60892412" /></vehicle><vehicle id="60" depart="11" type="motorcycle"><route edges="-301972997#1" /></vehicle><vehicle id="61" depart="11" type="truck"><route edges="729083323" /></vehicle><vehicle id="62" depart="11" type="truck"><route edges="-728823380#0" /></vehicle><vehicle id="63" depart="11" type="truck"><route edges="-60891729#0" /></vehicle><vehicle id="64" depart="11" type="taxi"><route edges="60892433#0" /></vehicle><vehicle id="65" depart="11" type="motorcycle"><route edges="-60892432#0" /></vehicle><vehicle id="66" depart="11" type="taxi"><route edges="60892424#2" /></vehicle><vehicle id="67" depart="11" type="truck"><route edges="-60892437#2" /></vehicle><vehicle id="68" depart="11" type="motorcycle"><route edges="-60891753#1" /></vehicle><vehicle id="69" depart="11" type="taxi"><route edges="-58784759#1" /></vehicle><vehicle id="70" depart="11" type="taxi"><route edges="-36891856#2" /></vehicle><vehicle id="71" depart="11" type="taxi"><route edges="60891734#0" /></vehicle><vehicle id="72" depart="11" type="taxi"><route edges="60892432#6" /></vehicle><vehicle id="73" depart="11" type="truck"><route edges="301973089#2" /></vehicle><vehicle id="74" depart="11" type="motorcycle"><route edges="-576115237#0" /></vehicle><vehicle id="75" depart="11" type="taxi"><route edges="578198396#2" /></vehicle><vehicle id="76" depart="12" type="truck"><route edges="515367765" /></vehicle><vehicle id="77" depart="12" type="truck"><route edges="60892390#4" /></vehicle><vehicle id="78" depart="12" type="truck"><route edges="511747525#10" /></vehicle><vehicle id="79" depart="12" type="taxi"><route edges="576095765" /></vehicle><vehicle id="80" depart="12" type="motorcycle"><route edges="-60891752" /></vehicle><vehicle id="81" depart="12" type="truck"><route edges="728823380#2" /></vehicle><vehicle id="82" depart="12" type="motorcycle"><route edges="60891758#6" /></vehicle><vehicle id="83" depart="12" type="truck"><route edges="-576095765" /></vehicle><vehicle id="84" depart="12" type="truck"><route edges="60892393" /></vehicle><vehicle id="85" depart="12" type="truck"><route edges="391959332#4" /></vehicle><vehicle id="86" depart="12" type="motorcycle"><route edges="60892422#4" /></vehicle><vehicle id="87" depart="12" type="motorcycle"><route edges="157453296#4" /></vehicle><vehicle id="88" depart="12" type="motorcycle"><route edges="157453365" /></vehicle><vehicle id="89" depart="12" type="taxi"><route edges="-253266087#2" /></vehicle><vehicle id="90" depart="12" type="taxi"><route edges="-60891735#4" /></vehicle><vehicle id="91" depart="12" type="taxi"><route edges="729072971" /></vehicle><vehicle id="92" depart="13" type="taxi"><route edges="576115226" /></vehicle><vehicle id="93" depart="13" type="truck"><route edges="460887186#4" /></vehicle><vehicle id="94" depart="13" type="motorcycle"><route edges="576086141#2" /></vehicle><vehicle id="95" depart="13" type="taxi"><route edges="-60892433#4" /></vehicle><vehicle id="96" depart="13" type="taxi"><route edges="60892391#2" /></vehicle><vehicle id="97" depart="13" type="truck"><route edges="-462661514#2" /></vehicle><vehicle id="98" depart="13" type="motorcycle"><route edges="157453296#3" /></vehicle><vehicle id="99" depart="13" type="motorcycle"><route edges="60892429#0" /></vehicle><vehicle id="100" depart="13" type="motorcycle"><route edges="576073379#1" /></vehicle><vehicle id="101" depart="13" type="taxi"><route edges="-253266093#0" /></vehicle><vehicle id="102" depart="13" type="motorcycle"><route edges="-60891759#3" /></vehicle><vehicle id="103" depart="13" type="motorcycle"><route edges="576095771#1" /></vehicle><vehicle id="104" depart="13" type="taxi"><route edges="60892393" /></vehicle><vehicle id="105" depart="13" type="truck"><route edges="60891758#1" /></vehicle><vehicle id="106" depart="13" type="taxi"><route edges="60891743" /></vehicle><vehicle id="107" depart="13" type="motorcycle"><route edges="60891743" /></vehicle><vehicle id="108" depart="13" type="truck"><route edges="60891740#4" /></vehicle><vehicle id="109" depart="13" type="taxi"><route edges="60891744#0" /></vehicle><vehicle id="110" depart="13" type="motorcycle"><route edges="-60891753#2" /></vehicle><vehicle id="111" depart="13" type="taxi"><route edges="-728803996" /></vehicle><vehicle id="112" depart="14" type="taxi"><route edges="-301973057#0" /></vehicle><vehicle id="113" depart="14" type="truck"><route edges="576095767#0" /></vehicle><vehicle id="114" depart="15" type="motorcycle"><route edges="-60892433#4" /></vehicle><vehicle id="115" depart="15" type="truck"><route edges="-60891753#3" /></vehicle><vehicle id="116" depart="15" type="motorcycle"><route edges="515367766#1" /></vehicle><vehicle id="117" depart="15" type="motorcycle"><route edges="-301973099#4" /></vehicle><vehicle id="118" depart="15" type="truck"><route edges="-58784757#3" /></vehicle><vehicle id="119" depart="15" type="taxi"><route edges="391255042" /></vehicle><vehicle id="120" depart="15" type="motorcycle"><route edges="58404758#0" /></vehicle><vehicle id="121" depart="15" type="motorcycle"><route edges="-728829874" /></vehicle><vehicle id="122" depart="15" type="truck"><route edges="-301973057#0" /></vehicle><vehicle id="123" depart="15" type="motorcycle"><route edges="-576073379#0" /></vehicle><vehicle id="124" depart="16" type="taxi"><route edges="-58404684#0" /></vehicle><vehicle id="125" depart="16" type="motorcycle"><route edges="-60892390#6" /></vehicle><vehicle id="126" depart="16" type="taxi"><route edges="728834278" /></vehicle><vehicle id="127" depart="16" type="taxi"><route edges="-576086141#0" /></vehicle><vehicle id="128" depart="16" type="motorcycle"><route edges="-301973099#3" /></vehicle><vehicle id="129" depart="16" type="truck"><route edges="589976797" /></vehicle><vehicle id="130" depart="16" type="taxi"><route edges="-460887186#5" /></vehicle><vehicle id="131" depart="16" type="taxi"><route edges="-60891746#1" /></vehicle><vehicle id="132" depart="16" type="motorcycle"><route edges="60891741#6" /></vehicle><vehicle id="133" depart="16" type="motorcycle"><route edges="-321544804#2" /></vehicle><vehicle id="134" depart="16" type="motorcycle"><route edges="-60891752" /></vehicle><vehicle id="135" depart="16" type="truck"><route edges="60891740#1" /></vehicle><vehicle id="136" depart="17" type="truck"><route edges="-58784759#0" /></vehicle><vehicle id="137" depart="17" type="truck"><route edges="-729064130" /></vehicle><vehicle id="138" depart="17" type="truck"><route edges="60891736#2" /></vehicle><vehicle id="139" depart="17" type="truck"><route edges="60891740#3" /></vehicle><vehicle id="140" depart="17" type="motorcycle"><route edges="-60891735#2" /></vehicle><vehicle id="141" depart="17" type="motorcycle"><route edges="-60892433#0" /></vehicle><vehicle id="142" depart="17" type="motorcycle"><route edges="-590203783#0" /></vehicle><vehicle id="143" depart="17" type="truck"><route edges="-60892390#5" /></vehicle><vehicle id="144" depart="17" type="truck"><route edges="60892412" /></vehicle><vehicle id="145" depart="17" type="motorcycle"><route edges="-576073379#0" /></vehicle><vehicle id="146" depart="17" type="taxi"><route edges="-60891736#1" /></vehicle><vehicle id="147" depart="17" type="motorcycle"><route edges="-60891725#0" /></vehicle><vehicle id="148" depart="17" type="motorcycle"><route edges="60892393" /></vehicle><vehicle id="149" depart="17" type="taxi"><route edges="60891727#0" /></vehicle><vehicle id="150" depart="17" type="motorcycle"><route edges="-60891737#1" /></vehicle><vehicle id="151" depart="17" type="truck"><route edges="-58404713#0" /></vehicle><vehicle id="152" depart="18" type="truck"><route edges="-58404674#0" /></vehicle><vehicle id="153" depart="18" type="motorcycle"><route edges="60891730" /></vehicle><vehicle id="154" depart="18" type="truck"><route edges="-60891735#2" /></vehicle><vehicle id="155" depart="18" type="taxi"><route edges="60891727#1" /></vehicle><vehicle id="156" depart="18" type="motorcycle"><route edges="-253266087#1" /></vehicle><vehicle id="157" depart="18" type="truck"><route edges="157453296#4" /></vehicle><vehicle id="158" depart="18" type="taxi"><route edges="460887186#5" /></vehicle><vehicle id="159" depart="18" type="taxi"><route edges="321544804#0" /></vehicle><vehicle id="160" depart="18" type="motorcycle"><route edges="58404757#1" /></vehicle><vehicle id="161" depart="18" type="taxi"><route edges="1111618807#0" /></vehicle><vehicle id="162" depart="19" type="truck"><route edges="60891748#2" /></vehicle><vehicle id="163" depart="19" type="taxi"><route edges="157453536#0" /></vehicle><vehicle id="164" depart="19" type="motorcycle"><route edges="-60891753#0" /></vehicle><vehicle id="165" depart="19" type="taxi"><route edges="463302460#3" /></vehicle><vehicle id="166" depart="19" type="taxi"><route edges="60892433#4" /></vehicle><vehicle id="167" depart="19" type="motorcycle"><route edges="60891756#1" /></vehicle><vehicle id="168" depart="19" type="truck"><route edges="-60892427#1" /></vehicle><vehicle id="169" depart="19" type="motorcycle"><route edges="729072970#0" /></vehicle><vehicle id="170" depart="19" type="taxi"><route edges="-589976802#1" /></vehicle><vehicle id="171" depart="19" type="motorcycle"><route edges="-576086196#3" /></vehicle><vehicle id="172" depart="19" type="motorcycle"><route edges="-729064130" /></vehicle><vehicle id="173" depart="19" type="truck"><route edges="-463302460#0" /></vehicle><vehicle id="174" depart="19" type="truck"><route edges="-1111618809#2" /></vehicle><vehicle id="175" depart="20" type="motorcycle"><route edges="-60892397#0" /></vehicle><vehicle id="176" depart="20" type="truck"><route edges="589976802#1" /></vehicle><vehicle id="177" depart="20" type="truck"><route edges="157453536#0" /></vehicle><vehicle id="178" depart="20" type="taxi"><route edges="60891748#0" /></vehicle><vehicle id="179" depart="20" type="motorcycle"><route edges="515337317#8" /></vehicle><vehicle id="180" depart="20" type="taxi"><route edges="576115236" /></vehicle><vehicle id="181" depart="20" type="taxi"><route edges="515287473" /></vehicle><vehicle id="182" depart="20" type="taxi"><route edges="60891725#0" /></vehicle><vehicle id="183" depart="20" type="truck"><route edges="-60892429#0" /></vehicle><vehicle id="184" depart="20" type="taxi"><route edges="58404759#1" /></vehicle><vehicle id="185" depart="20" type="truck"><route edges="-60891759#0" /></vehicle><vehicle id="186" depart="20" type="truck"><route edges="-60892434" /></vehicle><vehicle id="187" depart="20" type="truck"><route edges="60891761#0" /></vehicle><vehicle id="188" depart="20" type="taxi"><route edges="576086170" /></vehicle><vehicle id="189" depart="20" type="truck"><route edges="58404762#10" /></vehicle><vehicle id="190" depart="20" type="taxi"><route edges="-576086141#1" /></vehicle><vehicle id="191" depart="20" type="taxi"><route edges="36891856#3" /></vehicle><vehicle id="192" depart="20" type="motorcycle"><route edges="576086193" /></vehicle><vehicle id="193" depart="20" type="truck"><route edges="-60891745" /></vehicle><vehicle id="194" depart="21" type="truck"><route edges="58404762#10" /></vehicle><vehicle id="195" depart="21" type="motorcycle"><route edges="589976802#1" /></vehicle><vehicle id="196" depart="21" type="taxi"><route edges="1111618809#0" /></vehicle><vehicle id="197" depart="21" type="truck"><route edges="515287473" /></vehicle><vehicle id="198" depart="21" type="motorcycle"><route edges="58784757#3" /></vehicle><vehicle id="199" depart="21" type="motorcycle"><route edges="-1111618809#5" /></vehicle><vehicle id="200" depart="21" type="motorcycle"><route edges="-60892394#1" /></vehicle><vehicle id="201" depart="21" type="truck"><route edges="728823380#0" /></vehicle><vehicle id="202" depart="21" type="motorcycle"><route edges="301973121#1" /></vehicle><vehicle id="203" depart="21" type="truck"><route edges="58404686#2" /></vehicle><vehicle id="204" depart="21" type="truck"><route edges="60891745" /></vehicle><vehicle id="205" depart="21" type="motorcycle"><route edges="-576115222" /></vehicle><vehicle id="206" depart="23" type="taxi"><route edges="60892392#1" /></vehicle><vehicle id="207" depart="23" type="taxi"><route edges="157453536#3" /></vehicle><vehicle id="208" depart="23" type="taxi"><route edges="-60891738#1" /></vehicle><vehicle id="209" depart="23" type="motorcycle"><route edges="-321544804#3" /></vehicle><vehicle id="210" depart="23" type="motorcycle"><route edges="164096539#0" /></vehicle><vehicle id="211" depart="23" type="motorcycle"><route edges="-60891739#0" /></vehicle><vehicle id="212" depart="23" type="taxi"><route edges="60891758#4" /></vehicle><vehicle id="213" depart="23" type="motorcycle"><route edges="576115208" /></vehicle><vehicle id="214" depart="23" type="motorcycle"><route edges="-60892403#1" /></vehicle><vehicle id="215" depart="23" type="truck"><route edges="-60891741#2" /></vehicle><vehicle id="216" depart="23" type="motorcycle"><route edges="-576115222" /></vehicle><vehicle id="217" depart="23" type="truck"><route edges="-60892432#0" /></vehicle><vehicle id="218" depart="23" type="motorcycle"><route edges="60891758#3" /></vehicle><vehicle id="219" depart="23" type="motorcycle"><route edges="60892397#1" /></vehicle><vehicle id="220" depart="24" type="truck"><route edges="301973089#0" /></vehicle><vehicle id="221" depart="24" type="motorcycle"><route edges="60891735#0" /></vehicle><vehicle id="222" depart="24" type="taxi"><route edges="321544804#1" /></vehicle><vehicle id="223" depart="24" type="truck"><route edges="576086196#3" /></vehicle><vehicle id="224" depart="24" type="motorcycle"><route edges="-60892390#4" /></vehicle><vehicle id="225" depart="24" type="taxi"><route edges="58404764#2" /></vehicle><vehicle id="226" depart="25" type="truck"><route edges="1111618807#9" /></vehicle><vehicle id="227" depart="25" type="motorcycle"><route edges="60892403#0" /></vehicle><vehicle id="228" depart="25" type="taxi"><route edges="-60892390#4" /></vehicle><vehicle id="229" depart="25" type="truck"><route edges="60891735#2" /></vehicle><vehicle id="230" depart="25" type="truck"><route edges="391255044#1" /></vehicle><vehicle id="231" depart="25" type="motorcycle"><route edges="729106750" /></vehicle><vehicle id="232" depart="25" type="taxi"><route edges="-728829874" /></vehicle><vehicle id="233" depart="25" type="taxi"><route edges="60891756#3" /></vehicle><vehicle id="234" depart="25" type="truck"><route edges="-60892432#3" /></vehicle><vehicle id="235" depart="25" type="motorcycle"><route edges="-60892432#0" /></vehicle><vehicle id="236" depart="25" type="motorcycle"><route edges="58404758#5" /></vehicle><vehicle id="237" depart="25" type="motorcycle"><route edges="301972997#2" /></vehicle><vehicle id="238" depart="25" type="truck"><route edges="-58404686#2" /></vehicle><vehicle id="239" depart="26" type="truck"><route edges="-60892394#0" /></vehicle><vehicle id="240" depart="26" type="taxi"><route edges="-301973050#1" /></vehicle><vehicle id="241" depart="26" type="motorcycle"><route edges="1111618807#7" /></vehicle><vehicle id="242" depart="26" type="taxi"><route edges="391959332#2" /></vehicle><vehicle id="243" depart="26" type="taxi"><route edges="-60892427#1" /></vehicle><vehicle id="244" depart="27" type="truck"><route edges="60891735#2" /></vehicle><vehicle id="245" depart="27" type="motorcycle"><route edges="-301973167#2" /></vehicle><vehicle id="246" depart="27" type="motorcycle"><route edges="391255044#0" /></vehicle><vehicle id="247" depart="27" type="taxi"><route edges="515337317#16" /></vehicle><vehicle id="248" depart="27" type="taxi"><route edges="-576086139#3" /></vehicle><vehicle id="249" depart="27" type="taxi"><route edges="60892390#5" /></vehicle><vehicle id="250" depart="27" type="motorcycle"><route edges="60892432#0" /></vehicle><vehicle id="251" depart="27" type="truck"><route edges="-321544804#2" /></vehicle><vehicle id="252" depart="27" type="motorcycle"><route edges="-60892425" /></vehicle><vehicle id="253" depart="27" type="motorcycle"><route edges="60891748#0" /></vehicle><vehicle id="254" depart="27" type="taxi"><route edges="-60892428#1" /></vehicle><vehicle id="255" depart="27" type="taxi"><route edges="515337317#3" /></vehicle><vehicle id="256" depart="27" type="taxi"><route edges="36891856#3" /></vehicle><vehicle id="257" depart="27" type="taxi"><route edges="58404764#8" /></vehicle><vehicle id="258" depart="27" type="truck"><route edges="-60892397#1" /></vehicle><vehicle id="259" depart="27" type="motorcycle"><route edges="515337317#16" /></vehicle><vehicle id="260" depart="28" type="taxi"><route edges="-60891748#4" /></vehicle><vehicle id="261" depart="28" type="motorcycle"><route edges="-60891761#4" /></vehicle><vehicle id="262" depart="28" type="truck"><route edges="-301973106#1" /></vehicle><vehicle id="263" depart="28" type="taxi"><route edges="-301973089#2" /></vehicle><vehicle id="264" depart="28" type="truck"><route edges="58404686#5" /></vehicle><vehicle id="265" depart="28" type="motorcycle"><route edges="58404757#2" /></vehicle><vehicle id="266" depart="28" type="taxi"><route edges="-576086196#3" /></vehicle><vehicle id="267" depart="28" type="motorcycle"><route edges="-60892433#2" /></vehicle><vehicle id="268" depart="28" type="motorcycle"><route edges="60891728" /></vehicle><vehicle id="269" depart="28" type="truck"><route edges="-60891735#1" /></vehicle><vehicle id="270" depart="28" type="taxi"><route edges="-576115222" /></vehicle><vehicle id="271" depart="28" type="truck"><route edges="-60891756#0" /></vehicle><vehicle id="272" depart="28" type="taxi"><route edges="301973167#2" /></vehicle><vehicle id="273" depart="29" type="motorcycle"><route edges="60892437#3" /></vehicle><vehicle id="274" depart="29" type="taxi"><route edges="-1053525363" /></vehicle><vehicle id="275" depart="29" type="motorcycle"><route edges="-60892394#2" /></vehicle><vehicle id="276" depart="29" type="taxi"><route edges="60892403#1" /></vehicle><vehicle id="277" depart="30" type="motorcycle"><route edges="60891751#2" /></vehicle><vehicle id="278" depart="30" type="motorcycle"><route edges="58404705#1" /></vehicle><vehicle id="279" depart="30" type="motorcycle"><route edges="-58784757#0" /></vehicle><vehicle id="280" depart="30" type="taxi"><route edges="-576086194" /></vehicle><vehicle id="281" depart="30" type="motorcycle"><route edges="60892393" /></vehicle><vehicle id="282" depart="31" type="taxi"><route edges="463302460#5" /></vehicle><vehicle id="283" depart="31" type="truck"><route edges="164096539#0" /></vehicle><vehicle id="284" depart="31" type="taxi"><route edges="157453202#2" /></vehicle><vehicle id="285" depart="31" type="truck"><route edges="576086165#2" /></vehicle><vehicle id="286" depart="31" type="taxi"><route edges="576115220" /></vehicle><vehicle id="287" depart="31" type="taxi"><route edges="-729064125" /></vehicle><vehicle id="288" depart="31" type="taxi"><route edges="1111618807#9" /></vehicle><vehicle id="289" depart="31" type="truck"><route edges="1111618807#1" /></vehicle><vehicle id="290" depart="31" type="truck"><route edges="58404757#0" /></vehicle><vehicle id="291" depart="31" type="truck"><route edges="-578198396#1" /></vehicle><vehicle id="292" depart="31" type="taxi"><route edges="-58784757#3" /></vehicle><vehicle id="293" depart="31" type="truck"><route edges="-728834278" /></vehicle><vehicle id="294" depart="31" type="taxi"><route edges="60891727#2" /></vehicle><vehicle id="295" depart="32" type="taxi"><route edges="60891736#0" /></vehicle><vehicle id="296" depart="32" type="motorcycle"><route edges="58404704#0" /></vehicle><vehicle id="297" depart="32" type="motorcycle"><route edges="-60891740#4" /></vehicle><vehicle id="298" depart="32" type="truck"><route edges="60892432#4" /></vehicle><vehicle id="299" depart="32" type="truck"><route edges="-60891740#3" /></vehicle><vehicle id="300" depart="32" type="motorcycle"><route edges="36891856#4" /></vehicle><vehicle id="301" depart="32" type="truck"><route edges="60892392#0" /></vehicle><vehicle id="302" depart="32" type="motorcycle"><route edges="576086141#3" /></vehicle><vehicle id="303" depart="32" type="truck"><route edges="-60891748#1" /></vehicle><vehicle id="304" depart="32" type="truck"><route edges="-576095767#1" /></vehicle><vehicle id="305" depart="32" type="taxi"><route edges="729072971" /></vehicle><vehicle id="306" depart="32" type="motorcycle"><route edges="301973057#1" /></vehicle><vehicle id="307" depart="32" type="taxi"><route edges="-462661514#1" /></vehicle><vehicle id="308" depart="32" type="motorcycle"><route edges="-576086141#1" /></vehicle><vehicle id="309" depart="33" type="truck"><route edges="58784761" /></vehicle><vehicle id="310" depart="33" type="motorcycle"><route edges="511747525#9" /></vehicle><vehicle id="311" depart="33" type="truck"><route edges="511747525#10" /></vehicle><vehicle id="312" depart="33" type="truck"><route edges="60892432#2" /></vehicle><vehicle id="313" depart="33" type="motorcycle"><route edges="60891761#0" /></vehicle><vehicle id="314" depart="33" type="truck"><route edges="-301973089#0" /></vehicle><vehicle id="315" depart="33" type="taxi"><route edges="60891721#1" /></vehicle><vehicle id="316" depart="33" type="motorcycle"><route edges="-60892437#2" /></vehicle><vehicle id="317" depart="33" type="motorcycle"><route edges="60892404#1" /></vehicle><vehicle id="318" depart="33" type="motorcycle"><route edges="-1053008963" /></vehicle><vehicle id="319" depart="33" type="truck"><route edges="-301973089#0" /></vehicle><vehicle id="320" depart="33" type="truck"><route edges="-589976802#1" /></vehicle><vehicle id="321" depart="33" type="motorcycle"><route edges="58404704#1" /></vehicle><vehicle id="322" depart="33" type="truck"><route edges="-58404713#0" /></vehicle><vehicle id="323" depart="33" type="truck"><route edges="301973089#2" /></vehicle><vehicle id="324" depart="33" type="truck"><route edges="60891756#1" /></vehicle><vehicle id="325" depart="33" type="taxi"><route edges="-576115226" /></vehicle><vehicle id="326" depart="34" type="motorcycle"><route edges="1318919008#1" /></vehicle><vehicle id="327" depart="34" type="taxi"><route edges="729083323" /></vehicle><vehicle id="328" depart="34" type="taxi"><route edges="157453296#1" /></vehicle><vehicle id="329" depart="34" type="taxi"><route edges="576115236" /></vehicle><vehicle id="330" depart="34" type="motorcycle"><route edges="58404704#0" /></vehicle><vehicle id="331" depart="34" type="motorcycle"><route edges="58404758#3" /></vehicle><vehicle id="332" depart="35" type="truck"><route edges="-462661514#1" /></vehicle><vehicle id="333" depart="35" type="truck"><route edges="-60892432#6" /></vehicle><vehicle id="334" depart="35" type="taxi"><route edges="-576086141#1" /></vehicle><vehicle id="335" depart="35" type="taxi"><route edges="576086141#2" /></vehicle><vehicle id="336" depart="35" type="taxi"><route edges="1111618809#0" /></vehicle><vehicle id="337" depart="35" type="taxi"><route edges="-60891726" /></vehicle><vehicle id="338" depart="36" type="motorcycle"><route edges="515367766#1" /></vehicle><vehicle id="339" depart="36" type="motorcycle"><route edges="-576086165#1" /></vehicle><vehicle id="340" depart="36" type="truck"><route edges="60892437#4" /></vehicle><vehicle id="341" depart="36" type="motorcycle"><route edges="-1111618807#3" /></vehicle><vehicle id="342" depart="36" type="truck"><route edges="60891759#3" /></vehicle><vehicle id="343" depart="36" type="motorcycle"><route edges="58404705#2" /></vehicle><vehicle id="344" depart="36" type="taxi"><route edges="576095771#1" /></vehicle><vehicle id="345" depart="36" type="taxi"><route edges="578198396#1" /></vehicle><vehicle id="346" depart="36" type="motorcycle"><route edges="729106749" /></vehicle><vehicle id="347" depart="36" type="taxi"><route edges="-60891735#0" /></vehicle><vehicle id="348" depart="36" type="truck"><route edges="511747525#9" /></vehicle><vehicle id="349" depart="36" type="truck"><route edges="-60891759#1" /></vehicle><vehicle id="350" depart="37" type="motorcycle"><route edges="60892427#1" /></vehicle><vehicle id="351" depart="37" type="taxi"><route edges="626052224#1" /></vehicle><vehicle id="352" depart="37" type="truck"><route edges="-58784759#1" /></vehicle><vehicle id="353" depart="37" type="taxi"><route edges="-60892397#1" /></vehicle><vehicle id="354" depart="37" type="taxi"><route edges="301972997#3" /></vehicle><vehicle id="355" depart="37" type="motorcycle"><route edges="58404762#3" /></vehicle><vehicle id="356" depart="37" type="truck"><route edges="60892428#2" /></vehicle><vehicle id="357" depart="37" type="motorcycle"><route edges="-60892437#3" 