<?xml version="1.0" encoding="UTF-8"?>

<!-- generated on 2025-03-19 23:01:21 by Eclipse SUMO netconvert Version 1.22.0
<netconvertConfiguration xmlns:xsi="http://www.w3.org/2001/XMLSchema-instance" xsi:noNamespaceSchemaLocation="http://sumo.dlr.de/xsd/netconvertConfiguration.xsd">

    <input>
        <sumo-net-file value="map.net.xml"/>
    </input>

    <output>
        <output.street-names value="true"/>
    </output>

    <processing>
        <geometry.min-radius.fix.railways value="false"/>
        <geometry.max-grade.fix value="false"/>
        <offset.disable-normalization value="true"/>
        <lefthand value="0"/>
    </processing>

    <junctions>
        <no-internal-links value="true"/>
        <no-turnarounds value="true"/>
        <junctions.corner-detail value="5"/>
        <junctions.limit-turn-speed value="5.50"/>
        <rectangular-lane-cut value="0"/>
    </junctions>

    <pedestrian>
        <walkingareas value="0"/>
    </pedestrian>

</netconvertConfiguration>
-->

<net version="1.20" junctionCornerDetail="5" limitTurnSpeed="5.50" xmlns:xsi="http://www.w3.org/2001/XMLSchema-instance" xsi:noNamespaceSchemaLocation="http://sumo.dlr.de/xsd/net_file.xsd">

    <location netOffset="-649483.83,-3728205.41" convBoundary="0.00,-2.93,2368.41,1341.34" origBoundary="-7.387113,33.683059,-7.361665,33.695363" projParameter="+proj=utm +zone=29 +ellps=WGS84 +datum=WGS84 +units=m +no_defs"/>

    <type id="highway.footway" priority="1" numLanes="1" speed="2.78" allow="pedestrian" oneway="1" width="2.00"/>
    <type id="highway.pedestrian" priority="1" numLanes="1" speed="2.78" allow="pedestrian" oneway="1" width="2.00"/>
    <type id="highway.residential" priority="3" numLanes="1" speed="13.89" disallow="tram rail_urban rail rail_electric rail_fast ship container cable_car subway aircraft wheelchair scooter drone" oneway="0"/>
    <type id="highway.secondary" priority="11" numLanes="1" speed="27.78" disallow="tram rail_urban rail rail_electric rail_fast ship container cable_car subway aircraft wheelchair scooter drone" oneway="0"/>
    <type id="highway.service" priority="1" numLanes="1" speed="5.56" allow="pedestrian delivery bicycle" oneway="0"/>
    <type id="highway.tertiary" priority="10" numLanes="1" speed="22.22" disallow="tram rail_urban rail rail_electric rail_fast ship container cable_car subway aircraft wheelchair scooter drone" oneway="0"/>
    <type id="highway.tertiary_link" priority="5" numLanes="1" speed="22.22" disallow="tram rail_urban rail rail_electric rail_fast ship container cable_car subway aircraft wheelchair scooter drone" oneway="0"/>
    <type id="highway.track" priority="1" numLanes="1" speed="5.56" allow="pedestrian motorcycle moped bicycle" oneway="0"/>

    <edge id="-1053008963" from="6830543207" to="9677077386" priority="3" type="highway.residential">
        <lane id="-1053008963_0" index="0" disallow="tram rail_urban rail rail_electric rail_fast ship container cable_car subway aircraft wheelchair scooter drone" speed="13.89" length="57.88" shape="621.32,975.47 586.10,1000.75"/>
    </edge>
    <edge id="-1053508655" from="cluster_1696704611_1696704924" to="9681670859" priority="1" type="highway.service" shape="875.51,380.57 885.35,366.70">
        <lane id="-1053508655_0" index="0" allow="pedestrian delivery bicycle" speed="5.56" length="21.72" shape="877.35,375.21 880.80,370.34"/>
    </edge>
    <edge id="-1053508656#0" from="9681670859" to="9681670860" priority="1" type="highway.service" shape="885.35,366.70 794.21,260.11 790.63,258.44 786.65,258.38 777.60,263.82">
        <lane id="-1053508656#0_0" index="0" allow="pedestrian delivery bicycle" speed="5.56" length="158.73" shape="881.54,364.70 793.22,261.41 790.26,260.03 787.08,259.99 782.99,262.45"/>
    </edge>
    <edge id="-1053508656#1" from="1696704315" to="9681670859" priority="1" type="highway.service" shape="925.21,438.29 935.89,431.52 936.44,428.07 935.49,425.33 885.35,366.70">
        <lane id="-1053508656#1_0" index="0" allow="pedestrian delivery bicycle" speed="5.56" length="96.18" shape="928.90,434.06 934.42,430.56 934.80,428.21 934.08,426.14 887.78,372.00"/>
    </edge>
    <edge id="-1053525363" from="9681780226" to="9681780227" priority="3" type="highway.residential">
        <lane id="-1053525363_0" index="0" disallow="tram rail_urban rail rail_electric rail_fast ship container cable_car subway aircraft wheelchair scooter drone" speed="13.89" length="68.22" shape="883.37,899.08 839.74,930.05"/>
    </edge>
    <edge id="-1111618807#0" from="762099303" to="762099044" name="Boulevard Al Horriya" priority="3" type="highway.residential" shape="682.60,1120.40 702.35,1145.34 723.61,1169.44 738.03,1185.88">
        <lane id="-1111618807#0_0" index="0" disallow="tram rail_urban rail rail_electric rail_fast ship container cable_car subway aircraft wheelchair scooter drone" speed="13.89" length="85.82" shape="688.41,1125.16 703.58,1144.31 724.81,1168.38 739.23,1184.82"/>
    </edge>
    <edge id="-1111618807#1" from="1764799148" to="762099303" name="Boulevard Al Horriya" priority="3" type="highway.residential" shape="618.82,1048.37 643.37,1076.72 660.97,1096.42 682.60,1120.40">
        <lane id="-1111618807#1_0" index="0" disallow="tram rail_urban rail rail_electric rail_fast ship container cable_car subway aircraft wheelchair scooter drone" speed="13.89" length="96.21" shape="624.98,1053.04 644.57,1075.66 662.16,1095.35 679.18,1114.22"/>
    </edge>
    <edge id="-1111618807#2" from="9677077386" to="1764799148" name="Boulevard Al Horriya" priority="3" type="highway.residential" shape="579.00,1003.88 583.27,1008.57 597.06,1024.63 607.09,1035.55 618.82,1048.37">
        <lane id="-1111618807#2_0" index="0" disallow="tram rail_urban rail rail_electric rail_fast ship container cable_car subway aircraft wheelchair scooter drone" speed="13.89" length="59.71" shape="585.27,1008.44 598.26,1023.57 608.27,1034.47 615.41,1042.27"/>
    </edge>
    <edge id="-1111618807#3" from="762099118" to="9677077386" name="Boulevard Al Horriya" priority="3" type="highway.residential" shape="566.03,989.61 576.38,1000.98 579.00,1003.88">
        <lane id="-1111618807#3_0" index="0" disallow="tram rail_urban rail rail_electric rail_fast ship container cable_car subway aircraft wheelchair scooter drone" speed="13.89" length="19.28" shape="572.27,994.09 575.58,997.72"/>
    </edge>
    <edge id="-1111618807#4" from="762099363" to="762099118" name="Boulevard Al Horriya" priority="3" type="highway.residential" shape="535.01,953.61 551.98,973.31 566.03,989.61">
        <lane id="-1111618807#4_0" index="0" disallow="tram rail_urban rail rail_electric rail_fast ship container cable_car subway aircraft wheelchair scooter drone" speed="13.89" length="47.52" shape="541.16,958.30 553.19,972.27 562.68,983.27"/>
    </edge>
    <edge id="-1111618807#5" from="cluster_3944644192_762099112" to="762099363" name="Boulevard Al Horriya" priority="3" type="highway.residential" shape="512.76,929.50 535.01,953.61">
        <lane id="-1111618807#5_0" index="0" disallow="tram rail_urban rail rail_electric rail_fast ship container cable_car subway aircraft wheelchair scooter drone" speed="13.89" length="40.17" shape="519.01,933.91 531.59,947.54"/>
    </edge>
    <edge id="-1111618807#7" from="6830930090" to="cluster_3944644192_762099112" name="Boulevard Al Horriya" priority="3" type="highway.residential" shape="447.28,850.25 452.35,856.27 481.03,891.50 503.87,917.72">
        <lane id="-1111618807#7_0" index="0" disallow="tram rail_urban rail rail_electric rail_fast ship container cable_car subway aircraft wheelchair scooter drone" speed="13.89" length="95.44" shape="448.58,849.31 453.58,855.25 482.25,890.47 500.58,911.51"/>
    </edge>
    <edge id="-1111618807#8" from="6830930100" to="6830930090" name="Boulevard Al Horriya" priority="3" type="highway.residential">
        <lane id="-1111618807#8_0" index="0" disallow="tram rail_urban rail rail_electric rail_fast ship container cable_car subway aircraft wheelchair scooter drone" speed="13.89" length="7.70" shape="444.69,845.01 444.82,845.15"/>
    </edge>
    <edge id="-1111618807#9" from="cluster_428928506_6830930098_6830930105" to="6830930100" name="Boulevard Al Horriya" priority="3" type="highway.residential" shape="435.00,828.71 438.06,834.47 446.03,848.87">
        <lane id="-1111618807#9_0" index="0" disallow="tram rail_urban rail rail_electric rail_fast ship container cable_car subway aircraft wheelchair scooter drone" speed="13.89" length="26.41" shape="439.58,833.91 443.45,840.90"/>
    </edge>
    <edge id="-1111618808#1" from="6830930099" to="cluster_428928506_6830930098_6830930105" name="Boulevard Al Horriya" priority="3" type="highway.residential" shape="415.76,801.82 420.77,808.74 429.42,820.59">
        <lane id="-1111618808#1_0" index="0" disallow="tram rail_urban rail rail_electric rail_fast ship container cable_car subway aircraft wheelchair scooter drone" speed="13.89" length="28.67" shape="422.17,807.94 427.57,815.34"/>
    </edge>
    <edge id="-1111618809#0" from="cluster_1757587667_724169637" to="6830930099" name="Boulevard Al Horriya" priority="3" type="highway.residential" shape="343.78,722.51 381.43,764.44 391.36,775.44 404.89,790.43 415.76,801.82">
        <lane id="-1111618809#0_0" index="0" disallow="tram rail_urban rail rail_electric rail_fast ship container cable_car subway aircraft wheelchair scooter drone" speed="13.89" length="111.85" shape="349.45,726.42 382.62,763.37 392.55,774.37 406.06,789.34 416.12,799.88"/>
    </edge>
    <edge id="-1111618809#2" from="1757587693" to="cluster_1757587667_724169637" name="Boulevard Al Horriya" priority="3" type="highway.residential" shape="326.41,704.17 337.30,715.60">
        <lane id="-1111618809#2_0" index="0" disallow="tram rail_urban rail rail_electric rail_fast ship container cable_car subway aircraft wheelchair scooter drone" speed="13.89" length="20.52" shape="332.17,707.90 333.25,709.03"/>
    </edge>
    <edge id="-1111618809#3" from="762099576" to="1757587693" name="Boulevard Al Horriya" priority="3" type="highway.residential">
        <lane id="-1111618809#3_0" index="0" disallow="tram rail_urban rail rail_electric rail_fast ship container cable_car subway aircraft wheelchair scooter drone" speed="13.89" length="29.91" shape="312.05,686.26 322.32,697.38"/>
    </edge>
    <edge id="-1111618809#4" from="762099561" to="762099576" name="Boulevard Al Horriya" priority="3" type="highway.residential" shape="244.36,615.87 259.88,632.58 277.49,651.42 306.12,682.19">
        <lane id="-1111618809#4_0" index="0" disallow="tram rail_urban rail rail_electric rail_fast ship container cable_car subway aircraft wheelchair scooter drone" speed="13.89" length="90.62" shape="250.85,620.51 261.05,631.49 278.66,650.33 302.26,675.69"/>
    </edge>
    <edge id="-1111618809#5" from="428929594" to="762099561" name="Boulevard Al Horriya" priority="3" type="highway.residential">
        <lane id="-1111618809#5_0" index="0" disallow="tram rail_urban rail rail_electric rail_fast ship container cable_car subway aircraft wheelchair scooter drone" speed="13.89" length="51.22" shape="212.21,581.03 239.85,609.02"/>
    </edge>
    <edge id="-1264368496" from="11747005597" to="11747005599" priority="3" type="highway.residential">
        <lane id="-1264368496_0" index="0" disallow="tram rail_urban rail rail_electric rail_fast ship container cable_car subway aircraft wheelchair scooter drone" speed="13.89" length="26.51" shape="296.50,977.32 277.69,994.06"/>
    </edge>
    <edge id="-1264368497" from="11747005597" to="11747005599" priority="3" type="highway.residential" shape="296.43,975.24 299.54,975.42 302.50,976.82 346.48,1034.32 347.30,1037.55 347.25,1041.26 321.13,1073.53 316.36,1076.17 311.64,1075.85 257.28,1022.03 254.36,1018.02 255.16,1013.83 276.63,992.87">
        <lane id="-1264368497_0" index="0" disallow="tram rail_urban rail rail_electric rail_fast ship container cable_car subway aircraft wheelchair scooter drone" speed="13.89" length="253.25" shape="297.85,973.72 299.94,973.84 303.54,975.54 347.95,1033.61 348.90,1037.36 348.84,1041.84 322.18,1074.78 316.72,1077.80 310.94,1077.41 256.06,1023.08 252.66,1018.40 253.68,1013.04 275.51,991.73"/>
    </edge>
    <edge id="-1314846564#0" from="cluster_12169902463_6830161406" to="12169902484" priority="3" type="highway.residential" shape="1182.34,719.09 1193.55,708.12 1200.88,700.36 1207.96,692.39 1231.16,664.66 1234.33,661.67 1238.40,660.12 1242.76,660.24 1246.74,662.01 1281.40,688.22 1285.65,691.99 1288.87,696.68 1290.85,702.00 1291.49,707.63 1290.73,713.26 1288.63,718.54 1270.14,751.58 1268.29,753.19 1265.96,754.02 1263.50,753.96 1261.23,753.00 1254.72,748.19">
        <lane id="-1314846564#0_0" index="0" disallow="tram rail_urban rail rail_electric rail_fast ship container cable_car subway aircraft wheelchair scooter drone" speed="13.89" length="228.80" shape="1181.22,717.95 1192.41,707.00 1199.70,699.28 1206.75,691.35 1229.99,663.56 1233.46,660.29 1238.13,658.51 1243.12,658.65 1247.56,660.62 1282.41,686.98 1286.86,690.92 1290.30,695.94 1292.42,701.63 1293.10,707.65 1292.29,713.67 1290.08,719.23 1271.40,752.60 1269.11,754.60 1266.22,755.63 1263.16,755.55 1260.43,754.40 1253.77,749.48"/>
    </edge>
    <edge id="-164096531" from="cluster_1757587577_3944644202" to="1757587557" priority="3" type="highway.residential" shape="320.57,918.56 305.92,901.00 268.67,858.22 236.86,824.56 228.18,815.62 225.02,810.75 223.34,806.76 223.77,803.55 225.94,799.51 230.22,796.10 241.05,787.36 301.59,748.95">
        <lane id="-164096531_0" index="0" disallow="tram rail_urban rail rail_electric rail_fast ship container cable_car subway aircraft wheelchair scooter drone" speed="13.89" length="253.85" shape="314.76,914.09 304.70,902.04 267.48,859.30 235.70,825.67 226.92,816.62 223.60,811.50 221.70,806.98 222.22,803.05 224.69,798.46 229.22,794.85 240.12,786.06 294.00,751.87"/>
    </edge>
    <edge id="-164096539#0" from="1757587591" to="1757587699" priority="3" type="highway.residential" shape="284.33,731.47 224.93,769.04 222.15,771.47 186.09,795.79 173.77,803.88 136.72,827.44 117.12,840.37">
        <lane id="-164096539#0_0" index="0" disallow="tram rail_urban rail rail_electric rail_fast ship container cable_car subway aircraft wheelchair scooter drone" speed="13.89" length="199.60" shape="278.63,736.97 225.89,770.33 223.13,772.74 186.98,797.12 174.64,805.22 137.59,828.78 118.00,841.71"/>
    </edge>
    <edge id="-164096539#1" from="1757587693" to="1757587591" priority="3" type="highway.residential" shape="326.41,704.17 305.93,717.70 284.33,731.47">
        <lane id="-164096539#1_0" index="0" disallow="tram rail_urban rail rail_electric rail_fast ship container cable_car subway aircraft wheelchair scooter drone" speed="13.89" length="50.16" shape="320.81,709.78 306.80,719.04 291.90,728.54"/>
    </edge>
    <edge id="-164096540#0" from="1757587591" to="1757587557" priority="3" type="highway.residential">
        <lane id="-164096540#0_0" index="0" disallow="tram rail_urban rail rail_electric rail_fast ship container cable_car subway aircraft wheelchair scooter drone" speed="13.89" length="24.57" shape="291.06,736.01 297.13,742.16"/>
    </edge>
    <edge id="-164096540#1" from="1757587621" to="1757587591" priority="3" type="highway.residential" shape="211.34,636.02 217.52,646.02 228.56,663.77 237.67,677.40 247.17,690.55 256.57,701.59 270.40,715.66 284.33,731.47">
        <lane id="-164096540#1_0" index="0" disallow="tram rail_urban rail rail_electric rail_fast ship container cable_car subway aircraft wheelchair scooter drone" speed="13.89" length="120.58" shape="216.50,641.32 218.88,645.18 229.90,662.90 238.98,676.49 248.43,689.56 257.75,700.51 271.57,714.57 280.41,724.60"/>
    </edge>
    <edge id="-253266087#0" from="5633734178" to="6828265576" priority="3" type="highway.residential" shape="1184.05,517.67 1166.04,536.14 1162.40,538.07 1159.04,538.38 1156.32,537.23 1153.00,534.21 1145.52,527.52 1124.40,508.06 1114.76,499.32 1103.10,489.61 1088.26,476.38">
        <lane id="-253266087#0_0" index="0" disallow="tram rail_urban rail rail_electric rail_fast ship container cable_car subway aircraft wheelchair scooter drone" speed="13.89" length="127.55" shape="1180.12,523.99 1167.01,537.44 1162.87,539.63 1158.79,540.01 1155.45,538.60 1151.93,535.40 1144.44,528.70 1123.32,509.24 1113.71,500.53 1102.06,490.82 1092.84,482.61"/>
    </edge>
    <edge id="-253266087#1" from="3061622970" to="5633734178" priority="3" type="highway.residential">
        <lane id="-253266087#1_0" index="0" disallow="tram rail_urban rail rail_electric rail_fast ship container cable_car subway aircraft wheelchair scooter drone" speed="13.89" length="33.55" shape="1203.11,499.30 1190.12,513.43"/>
    </edge>
    <edge id="-253266087#2" from="cluster_2592182286_6828311066" to="3061622970" priority="3" type="highway.residential" shape="1232.06,464.90 1206.75,492.97">
        <lane id="-253266087#2_0" index="0" disallow="tram rail_urban rail rail_electric rail_fast ship container cable_car subway aircraft wheelchair scooter drone" speed="13.89" length="43.62" shape="1228.47,471.28 1212.83,488.61"/>
    </edge>
    <edge id="-253266093#0" from="3061622950" to="4585829926" priority="3" type="highway.residential" shape="1190.35,389.48 1200.81,380.24 1209.65,372.34 1221.24,359.57 1243.99,370.90 1261.52,379.21 1287.06,391.08">
        <lane id="-253266093#0_0" index="0" disallow="tram rail_urban rail rail_electric rail_fast ship container cable_car subway aircraft wheelchair scooter drone" speed="13.89" length="116.04" shape="1195.90,382.44 1199.75,379.04 1208.52,371.20 1220.87,357.60 1244.69,369.46 1262.20,377.76 1280.91,386.46"/>
    </edge>
    <edge id="-253266093#1" from="2592182241" to="3061622950" priority="3" type="highway.residential" shape="1171.16,408.25 1179.36,401.07 1190.35,389.48">
        <lane id="-253266093#1_0" index="0" disallow="tram rail_urban rail rail_electric rail_fast ship container cable_car subway aircraft wheelchair scooter drone" speed="13.89" length="26.87" shape="1175.78,402.08 1178.25,399.92 1184.83,392.97"/>
    </edge>
    <edge id="-301972960" from="6828244263" to="3061622254" priority="3" type="highway.residential" shape="1517.51,712.76 1508.94,720.77 1500.99,728.32 1493.72,736.00 1485.82,744.11 1480.89,748.49 1472.23,753.97 1462.36,757.22 1455.06,758.41 1450.22,757.77 1445.70,757.08 1441.44,755.04 1437.33,752.57 1429.81,747.25">
        <lane id="-301972960_0" index="0" disallow="tram rail_urban rail rail_electric rail_fast ship container cable_car subway aircraft wheelchair scooter drone" speed="13.89" length="107.41" shape="1511.79,720.30 1510.04,721.93 1502.12,729.45 1494.87,737.11 1486.93,745.27 1481.86,749.77 1472.92,755.43 1462.74,758.78 1455.08,760.03 1449.99,759.35 1445.22,758.63 1440.68,756.45 1436.45,753.91 1434.93,752.83"/>
    </edge>
    <edge id="-301972981#0" from="6828258496" to="3061623268" priority="3" type="highway.residential" shape="1301.44,781.36 1302.37,778.04 1305.94,772.03 1313.34,760.01 1327.89,737.72 1370.02,683.18">
        <lane id="-301972981#0_0" index="0" disallow="tram rail_urban rail rail_electric rail_fast ship container cable_car subway aircraft wheelchair scooter drone" speed="13.89" length="120.09" shape="1300.57,778.54 1300.89,777.40 1304.57,771.20 1311.99,759.15 1326.58,736.79 1361.39,691.73"/>
    </edge>
    <edge id="-301972997#1" from="3061622641" to="cluster_1696704284_1696705016_9544941868" priority="3" type="highway.residential" shape="1112.56,686.93 1116.94,684.89 1119.33,683.44">
        <lane id="-301972997#1_0" index="0" disallow="tram rail_urban rail rail_electric rail_fast ship container cable_car subway aircraft wheelchair scooter drone" speed="13.89" length="15.54" shape="1113.50,685.10 1113.67,685.00"/>
    </edge>
    <edge id="-301972997#2" from="3061623265" to="3061622641" priority="3" type="highway.residential" shape="1086.72,669.18 1095.79,677.99 1101.44,682.54 1107.11,685.72 1112.56,686.93">
        <lane id="-301972997#2_0" index="0" disallow="tram rail_urban rail rail_electric rail_fast ship container cable_car subway aircraft wheelchair scooter drone" speed="13.89" length="31.98" shape="1092.70,672.76 1096.85,676.79 1102.34,681.21 1107.56,684.14"/>
    </edge>
    <edge id="-301972997#3" from="3061622486" to="3061623265" priority="3" type="highway.residential" shape="1042.58,615.16 1073.66,653.52 1086.72,669.18">
        <lane id="-301972997#3_0" index="0" disallow="tram rail_urban rail rail_electric rail_fast ship container cable_car subway aircraft wheelchair scooter drone" speed="13.89" length="69.76" shape="1048.42,619.82 1074.90,652.50 1083.27,662.54"/>
    </edge>
    <edge id="-301972997#4" from="3061623474" to="3061622486" priority="3" type="highway.residential">
        <lane id="-301972997#4_0" index="0" disallow="tram rail_urban rail rail_electric rail_fast ship container cable_car subway aircraft wheelchair scooter drone" speed="13.89" length="47.89" shape="1017.98,582.81 1039.28,608.64"/>
    </edge>
    <edge id="-301973006" from="3061622948" to="3061622970" priority="3" type="highway.residential" shape="1110.45,401.59 1133.61,423.86 1177.97,465.17 1206.75,492.97">
        <lane id="-301973006_0" index="0" disallow="tram rail_urban rail rail_electric rail_fast ship container cable_car subway aircraft wheelchair scooter drone" speed="13.89" length="132.76" shape="1116.92,405.59 1134.71,422.70 1179.07,464.01 1202.60,486.74"/>
    </edge>
    <edge id="-301973050#0" from="3061623198" to="3061623165" priority="3" type="highway.residential">
        <lane id="-301973050#0_0" index="0" disallow="tram rail_urban rail rail_electric rail_fast ship container cable_car subway aircraft wheelchair scooter drone" speed="13.89" length="42.61" shape="1445.52,671.08 1467.01,689.25"/>
    </edge>
    <edge id="-301973050#1" from="3061622647" to="3061623198" priority="3" type="highway.residential">
        <lane id="-301973050#1_0" index="0" disallow="tram rail_urban rail rail_electric rail_fast ship container cable_car subway aircraft wheelchair scooter drone" speed="13.89" length="43.84" shape="1411.88,643.07 1434.44,661.80"/>
    </edge>
    <edge id="-301973057#0" from="3061622433" to="3061623268" priority="3" type="highway.residential" shape="1379.80,764.53 1376.09,739.96 1373.45,717.52 1370.02,683.18">
        <lane id="-301973057#0_0" index="0" disallow="tram rail_urban rail rail_electric rail_fast ship container cable_car subway aircraft wheelchair scooter drone" speed="13.89" length="81.95" shape="1377.41,759.44 1374.50,740.17 1371.86,717.69 1369.62,695.32"/>
    </edge>
    <edge id="-301973057#1" from="3061622532" to="3061622433" priority="3" type="highway.residential">
        <lane id="-301973057#1_0" index="0" disallow="tram rail_urban rail rail_electric rail_fast ship container cable_car subway aircraft wheelchair scooter drone" speed="13.89" length="27.73" shape="1394.70,778.76 1384.29,770.26"/>
    </edge>
    <edge id="-301973057#2" from="3061623009" to="3061622532" priority="3" type="highway.residential">
        <lane id="-301973057#2_0" index="0" disallow="tram rail_urban rail rail_electric rail_fast ship container cable_car subway aircraft wheelchair scooter drone" speed="13.89" length="29.81" shape="1417.53,797.80 1405.73,787.90"/>
    </edge>
    <edge id="-301973057#3" from="3061613609" to="3061623009" priority="3" type="highway.residential" shape="1536.74,786.80 1523.67,787.84 1506.85,789.80 1466.83,796.71 1444.16,799.33 1424.11,801.24">
        <lane id="-301973057#3_0" index="0" disallow="tram rail_urban rail rail_electric rail_fast ship container cable_car subway aircraft wheelchair scooter drone" speed="13.89" length="113.62" shape="1529.14,789.01 1523.83,789.43 1507.08,791.38 1467.06,798.29 1444.33,800.92 1429.58,802.33"/>
    </edge>
    <edge id="-301973089#0" from="cluster_3061622879_4585830225" to="4585830236" priority="3" type="highway.residential" shape="1129.80,369.60 1075.98,312.55">
        <lane id="-301973089#0_0" index="0" disallow="tram rail_urban rail rail_electric rail_fast ship container cable_car subway aircraft wheelchair scooter drone" speed="13.89" length="84.06" shape="1123.69,365.45 1080.14,319.29"/>
    </edge>
    <edge id="-301973089#2" from="2592182241" to="cluster_3061622879_4585830225" priority="3" type="highway.residential" shape="1171.16,408.25 1138.19,377.15">
        <lane id="-301973089#2_0" index="0" disallow="tram rail_urban rail rail_electric rail_fast ship container cable_car subway aircraft wheelchair scooter drone" speed="13.89" length="50.97" shape="1165.04,404.67 1142.53,383.45"/>
    </edge>
    <edge id="-301973089#3" from="cluster_2592182286_6828311066" to="2592182241" priority="3" type="highway.residential" shape="1218.32,452.11 1171.16,408.25">
        <lane id="-301973089#3_0" index="0" disallow="tram rail_urban rail rail_electric rail_fast ship container cable_car subway aircraft wheelchair scooter drone" speed="13.89" length="72.01" shape="1211.10,447.58 1175.60,414.56"/>
    </edge>
    <edge id="-301973099#0" from="3061613609" to="6828244270" priority="3" type="highway.residential" shape="1536.74,786.80 1543.61,809.07 1553.18,856.99">
        <lane id="-301973099#0_0" index="0" disallow="tram rail_urban rail rail_electric rail_fast ship container cable_car subway aircraft wheelchair scooter drone" speed="13.89" length="72.17" shape="1540.20,792.60 1545.16,808.68 1553.62,851.04"/>
    </edge>
    <edge id="-301973099#1" from="6828244263" to="3061613609" priority="3" type="highway.residential" shape="1517.51,712.76 1525.39,742.07 1530.44,760.71 1536.74,786.80">
        <lane id="-301973099#1_0" index="0" disallow="tram rail_urban rail rail_electric rail_fast ship container cable_car subway aircraft wheelchair scooter drone" speed="13.89" length="76.50" shape="1521.48,721.35 1526.93,741.65 1531.99,760.31 1536.48,778.89"/>
    </edge>
    <edge id="-301973099#2" from="3061623463" to="6828244263" priority="3" type="highway.residential" shape="1503.16,661.76 1509.31,681.29 1514.70,702.31 1517.51,712.76">
        <lane id="-301973099#2_0" index="0" disallow="tram rail_urban rail rail_electric rail_fast ship container cable_car subway aircraft wheelchair scooter drone" speed="13.89" length="53.00" shape="1507.45,670.05 1510.85,680.85 1516.25,701.90 1517.52,706.63"/>
    </edge>
    <edge id="-301973099#3" from="3061622861" to="3061623463" priority="3" type="highway.residential">
        <lane id="-301973099#3_0" index="0" disallow="tram rail_urban rail rail_electric rail_fast ship container cable_car subway aircraft wheelchair scooter drone" speed="13.89" length="59.04" shape="1491.87,614.65 1503.14,655.66"/>
    </edge>
    <edge id="-301973099#4" from="3061622104" to="3061622861" priority="3" type="highway.residential">
        <lane id="-301973099#4_0" index="0" disallow="tram rail_urban rail rail_electric rail_fast ship container cable_car subway aircraft wheelchair scooter drone" speed="13.89" length="52.22" shape="1477.59,563.98 1486.25,594.51"/>
    </edge>
    <edge id="-301973106#0" from="3061623165" to="3061623463" priority="3" type="highway.residential" shape="1471.56,695.19 1479.40,685.27 1489.65,674.92 1503.16,661.76">
        <lane id="-301973106#0_0" index="0" disallow="tram rail_urban rail rail_electric rail_fast ship container cable_car subway aircraft wheelchair scooter drone" speed="13.89" length="46.07" shape="1474.84,688.46 1478.20,684.21 1488.52,673.78 1495.45,667.03"/>
    </edge>
    <edge id="-301973106#1" from="3061622254" to="3061623165" priority="3" type="highway.residential">
        <lane id="-301973106#1_0" index="0" disallow="tram rail_urban rail rail_electric rail_fast ship container cable_car subway aircraft wheelchair scooter drone" speed="13.89" length="66.73" shape="1433.49,740.11 1465.86,699.74"/>
    </edge>
    <edge id="-301973106#2" from="3061622532" to="3061622254" priority="3" type="highway.residential">
        <lane id="-301973106#2_0" index="0" disallow="tram rail_urban rail rail_electric rail_fast ship container cable_car subway aircraft wheelchair scooter drone" speed="13.89" length="45.02" shape="1404.60,775.50 1424.15,751.64"/>
    </edge>
    <edge id="-301973121#0" from="6828311065" to="3061623215" priority="3" type="highway.residential" shape="1237.04,412.24 1272.81,429.66 1348.24,462.77">
        <lane id="-301973121#0_0" index="0" disallow="tram rail_urban rail rail_electric rail_fast ship container cable_car subway aircraft wheelchair scooter drone" speed="13.89" length="122.16" shape="1244.26,413.98 1273.48,428.21 1342.15,458.35"/>
    </edge>
    <edge id="-301973121#1" from="3061622950" to="6828311065" priority="3" type="highway.residential" shape="1190.35,389.48 1213.80,400.74 1237.04,412.24">
        <lane id="-301973121#1_0" index="0" disallow="tram rail_urban rail rail_electric rail_fast ship container cable_car subway aircraft wheelchair scooter drone" speed="13.89" length="51.94" shape="1199.00,391.86 1214.50,399.30 1231.36,407.64"/>
    </edge>
    <edge id="-301973167#0" from="762123989" to="3061622486" priority="3" type="highway.residential" shape="1025.42,629.85 1035.12,621.59 1042.58,615.16">
        <lane id="-301973167#0_0" index="0" disallow="tram rail_urban rail rail_electric rail_fast ship container cable_car subway aircraft wheelchair scooter drone" speed="13.89" length="22.59" shape="1029.78,624.04 1034.08,620.37 1036.01,618.71"/>
    </edge>
    <edge id="-301973167#1" from="5526427693" to="762123989" priority="3" type="highway.residential" shape="989.27,659.36 1004.51,646.48 1025.42,629.85">
        <lane id="-301973167#1_0" index="0" disallow="tram rail_urban rail rail_electric rail_fast ship container cable_car subway aircraft wheelchair scooter drone" speed="13.89" length="46.67" shape="993.61,653.60 1003.50,645.24 1018.85,633.03"/>
    </edge>